Circuit: * D:\B Tech\Third Year\3_2\PE\Class_Participation\Class Assignment3\SCR\Phase3\FWR\3Phase FWR-R.asc

Direct Newton iteration for .op point succeeded.
Heightened Def Con from 0.00167 to 0.00167
Heightened Def Con from 0.005 to 0.005
Heightened Def Con from 0.00833 to 0.00833
Heightened Def Con from 0.01503 to 0.01503
Heightened Def Con from 0.03503 to 0.03503
Heightened Def Con from 0.05833 to 0.05833

Date: Fri Apr 12 15:25:11 2024
Total elapsed time: 0.521 seconds.

tnom = 27
temp = 27
method = modified trap
totiter = 37046
traniter = 37037
tranpoints = 13804
accept = 11369
rejected = 2441
matrix size = 169
fillins = 69
solver = Normal
Avg thread counts: 1.0/1.1/1.1/1.0
Matrix Compiler1: 7.89 KB object code size  2.0/2.7/[0.5]
Matrix Compiler2: 12.31 KB object code size  1.0/1.6/[0.8]

