Circuit: * D:\B Tech\Third Year\3_2\PE\Class_Participation\Class Assignment3\SCR\Phase3\FWR\3Phase FWR-RLE - FD.asc

Direct Newton iteration for .op point succeeded.
Heightened Def Con from 0.00167 to 0.00167
Heightened Def Con from 0.005 to 0.005
Heightened Def Con from 0.00833 to 0.00833
Heightened Def Con from 0.01503 to 0.01503
Heightened Def Con from 0.01833 to 0.01833
Heightened Def Con from 0.02167 to 0.02167
Heightened Def Con from 0.03503 to 0.03503
Heightened Def Con from 0.09833 to 0.09833

Date: Fri Apr 12 14:50:36 2024
Total elapsed time: 0.890 seconds.

tnom = 27
temp = 27
method = modified trap
totiter = 37089
traniter = 37080
tranpoints = 13909
accept = 11430
rejected = 2487
matrix size = 172
fillins = 73
solver = Normal
Avg thread counts: 1.0/1.1/1.1/1.0
Matrix Compiler1: 8.01 KB object code size  6.0/2.5/[1.0]
Matrix Compiler2: 12.60 KB object code size  2.6/3.6/[1.4]

