Circuit: * D:\B Tech\Third Year\3_2\PE\Class_Participation\Class Assignment3\SCR\Phase3\FWR\3phase_FWR_R.asc

Direct Newton iteration for .op point succeeded.
Heightened Def Con from 0.0027 to 0.0027
Heightened Def Con from 0.0071 to 0.0071
Heightened Def Con from 0.0094 to 0.0094
Heightened Def Con from 0.0127 to 0.0127
Heightened Def Con from 0.0161 to 0.0161
Heightened Def Con from 0.0394 to 0.0394

Date: Fri Apr 12 15:27:47 2024
Total elapsed time: 0.302 seconds.

tnom = 27
temp = 27
method = modified trap
totiter = 18318
traniter = 18309
tranpoints = 6851
accept = 5700
rejected = 1157
matrix size = 170
fillins = 124
solver = Normal
Avg thread counts: 1.1/1.2/1.2/1.1
Matrix Compiler1: 11.33 KB object code size  2.5/1.4/[0.8]
Matrix Compiler2: 13.21 KB object code size  0.8/1.6/[0.8]

