Circuit: * C:\Users\Jayaraj Chippada\OneDrive\Pictures\Documents\LTspiceXVII\Class Assignment3\SCR\Phase3\FWR\3Phase FWR.asc

Direct Newton iteration for .op point succeeded.
Heightened Def Con from 0.00167 to 0.00167
Heightened Def Con from 0.00167 to 0.00167
Heightened Def Con from 0.00167 to 0.00167
Heightened Def Con from 0.005 to 0.005
Heightened Def Con from 0.00833 to 0.00833
Heightened Def Con from 0.01503 to 0.01503
Heightened Def Con from 0.03503 to 0.03503

Date: Tue Mar 26 11:12:43 2024
Total elapsed time: 0.862 seconds.

tnom = 27
temp = 27
method = modified trap
totiter = 35594
traniter = 35585
tranpoints = 13847
accept = 11401
rejected = 2453
matrix size = 172
fillins = 70
solver = Normal
Thread vector: 16.7/8.4[4] 3.3/2.9[2] 8.1/5.0[4] 0.5/4.0[1]  2592/500
Matrix Compiler1: 7.98 KB object code size  6.5/4.1/[0.9]
Matrix Compiler2: 12.52 KB object code size  2.8/3.9/[0.7]

