Circuit: * D:\B Tech\Third Year\3_2\PE\Class_Participation\Class Assignment3\SCR\Phase3\FWR\3Phase FWR-RL.asc

Direct Newton iteration for .op point succeeded.
Heightened Def Con from 0.00167 to 0.00167
Heightened Def Con from 0.00833 to 0.00833
Heightened Def Con from 0.01503 to 0.01503
Heightened Def Con from 0.01833 to 0.01833
Heightened Def Con from 0.03503 to 0.03503
Heightened Def Con from 0.05833 to 0.05833
Heightened Def Con from 0.07833 to 0.07833

Date: Tue Apr 16 12:55:33 2024
Total elapsed time: 0.599 seconds.

tnom = 27
temp = 27
method = modified trap
totiter = 31385
traniter = 31376
tranpoints = 11533
accept = 9526
rejected = 2014
matrix size = 170
fillins = 69
solver = Normal
Avg thread counts: 1.0/1.1/1.1/1.0
Matrix Compiler1: 7.95 KB object code size  2.6/1.6/[1.2]
Matrix Compiler2: 12.37 KB object code size  1.2/2.9/[0.7]

