Circuit: * C:\Users\KIRANMAI\OneDrive\Documents\LTspiceXVII\classAB.asc

Warning: Multiple definitions of model "2scr375p" Type: BJT
Warning: Multiple definitions of model "bc857b" Type: BJT
Warning: Multiple definitions of model "bc847c" Type: BJT
Warning: Multiple definitions of model "bc847b" Type: BJT
Direct Newton iteration for .op point succeeded.

Date: Tue Dec 24 17:37:16 2024
Total elapsed time: 0.191 seconds.

tnom = 27
temp = 27
method = modified trap
totiter = 2096
traniter = 2088
tranpoints = 1045
accept = 1045
rejected = 0
matrix size = 20
fillins = 13
solver = Normal
Matrix Compiler1: 2.06 KB object code size  0.5/0.3/[0.1]
Matrix Compiler2: 1.87 KB object code size  0.2/0.3/[0.2]

