Circuit: * D:\B Tech\Third Year\3_2\PE\Class_Participation\Class Assignment3\SCR\Phase3\HWR\3Phase HWR RLE.asc

Direct Newton iteration for .op point succeeded.
Heightened Def Con from 0.01084 to 0.01084
Heightened Def Con from 0.01751 to 0.01751
Heightened Def Con from 0.02417 to 0.02417

Date: Fri Apr 12 14:53:26 2024
Total elapsed time: 0.775 seconds.

tnom = 27
temp = 27
method = modified trap
totiter = 26151
traniter = 26143
tranpoints = 9497
accept = 7924
rejected = 1576
matrix size = 91
fillins = 50
solver = Normal
Avg thread counts: 2.0/1.1/2.0/1.0
Matrix Compiler1: 5.17 KB object code size  3.0/4.1/[0.6]
Matrix Compiler2: 6.82 KB object code size  3.9/3.3/[0.6]

