Circuit: * D:\B Tech\Third Year\3_2\PE\Class_Participation\Class Assignment3\SCR\Phase3\HWR\3Phase HWR RL.asc

Direct Newton iteration for .op point succeeded.
Heightened Def Con from 0.01084 to 0.01084
Heightened Def Con from 0.03751 to 0.03751

Date: Fri Apr 12 14:52:11 2024
Total elapsed time: 0.768 seconds.

tnom = 27
temp = 27
method = modified trap
totiter = 27799
traniter = 27790
tranpoints = 9539
accept = 8009
rejected = 1532
matrix size = 89
fillins = 46
solver = Normal
Avg thread counts: 2.0/1.1/1.1/1.0
Matrix Compiler1: 5.05 KB object code size  2.0/0.9/[0.5]
Matrix Compiler2: 6.62 KB object code size  0.7/1.2/[0.6]

