Circuit: * D:\B Tech\Third Year\3_2\PE\Class_Participation\Class Assignment3\SCR\Phase3\HWR\3Phase HWR RLE - FD.asc

Direct Newton iteration for .op point succeeded.
Heightened Def Con from 0.01084 to 0.01084
Heightened Def Con from 0.01751 to 0.01751

Date: Fri Apr 12 14:52:38 2024
Total elapsed time: 0.680 seconds.

tnom = 27
temp = 27
method = modified trap
totiter = 28694
traniter = 28686
tranpoints = 10209
accept = 8470
rejected = 1741
matrix size = 92
fillins = 49
solver = Normal
Avg thread counts: 1.0/1.1/1.1/1.0
Matrix Compiler1: 5.24 KB object code size  3.6/1.3/[0.7]
Matrix Compiler2: 6.85 KB object code size  1.2/1.8/[0.7]

