Circuit: * D:\B Tech\Third Year\3_2\PE\Class_Participation\Class Assignment3\Chopper\Chopper.asc

Warning: Multiple definitions of model "2scr375p" Type: BJT
Warning: Multiple definitions of model "bc857b" Type: BJT
Warning: Multiple definitions of model "bc847c" Type: BJT
Warning: Multiple definitions of model "bc847b" Type: BJT
Direct Newton iteration for .op point succeeded.

Date: Fri Apr 12 14:56:11 2024
Total elapsed time: 1.894 seconds.

tnom = 27
temp = 27
method = modified trap
totiter = 555291
traniter = 555286
tranpoints = 268240
accept = 193862
rejected = 74378
matrix size = 9
fillins = 0
solver = Normal
Avg thread counts: 1.0/1.0/1.0/1.0
Matrix Compiler1:      24 opcodes  0.3/[0.2]/0.5
Matrix Compiler2: off  [0.2]/0.3/0.5

