Circuit: * D:\B Tech\Third Year\3_2\PE\Class_Participation\Class Assignment3\Chopper\StepDown-Chopper-RL.asc

Warning: Multiple definitions of model "2scr375p" Type: BJT
Warning: Multiple definitions of model "bc857b" Type: BJT
Warning: Multiple definitions of model "bc847c" Type: BJT
Warning: Multiple definitions of model "bc847b" Type: BJT
Direct Newton iteration for .op point succeeded.

Date: Fri Apr 12 15:11:36 2024
Total elapsed time: 0.051 seconds.

tnom = 27
temp = 27
method = modified trap
totiter = 5188
traniter = 5183
tranpoints = 2585
accept = 2380
rejected = 205
matrix size = 9
fillins = 0
solver = Normal
Avg thread counts: 1.2/1.5/1.5/1.2
Matrix Compiler1:      24 opcodes  0.2/[0.1]/0.1
Matrix Compiler2: off  [0.1]/0.1/0.1

