Circuit: * C:\Users\Jayaraj Chippada\OneDrive\Pictures\Documents\LTspiceXVII\Class Assignment3\Chopper\StepUp-Chopper-RL.asc

Direct Newton iteration for .op point succeeded.

Date: Tue Mar 26 12:42:25 2024
Total elapsed time: 0.186 seconds.

tnom = 27
temp = 27
method = modified trap
totiter = 6775
traniter = 6771
tranpoints = 3094
accept = 2741
rejected = 353
matrix size = 10
fillins = 1
solver = Normal
Matrix Compiler1: 480 bytes object code size  0.2/0.2/[0.2]
Matrix Compiler2: off  [0.1]/0.3/0.2

