Circuit: * D:\B Tech\Third Year\3_2\PE\Class_Participation\Class Assignment3\Diode\Phase3\FWR\3 Phase FWR-R.asc

Direct Newton iteration for .op point succeeded.

Date: Tue Apr 16 13:10:57 2024
Total elapsed time: 0.112 seconds.

tnom = 27
temp = 27
method = modified trap
totiter = 5470
traniter = 5459
tranpoints = 1981
accept = 1622
rejected = 359
matrix size = 14
fillins = 2
solver = Normal
Avg thread counts: 1.2/1.6/1.6/1.2
Matrix Compiler1: 654 bytes object code size  0.2/0.2/[0.2]
Matrix Compiler2: 1.04 KB object code size  0.3/0.3/[0.2]

