Circuit: * C:\Users\Jayaraj Chippada\OneDrive\Pictures\Documents\LTspiceXVII\Class Assignment3\Phase3\3Phase FWR.asc

Direct Newton iteration for .op point succeeded.
Heightened Def Con from 0.00167 to 0.00167
Heightened Def Con from 0.005 to 0.005
Heightened Def Con from 0.00833 to 0.00833
Heightened Def Con from 0.01503 to 0.01503
Heightened Def Con from 0.03503 to 0.03503

Date: Thu Mar 07 12:51:22 2024
Total elapsed time: 1.174 seconds.

tnom = 27
temp = 27
method = modified trap
totiter = 35993
traniter = 35984
tranpoints = 13959
accept = 11531
rejected = 2433
matrix size = 169
fillins = 68
solver = Normal
Matrix Compiler1: 7.85 KB object code size  10.1/3.8/[2.0]
Matrix Compiler2: 12.29 KB object code size  4.4/8.1/[1.5]

