Circuit: * C:\Users\Jayaraj Chippada\OneDrive\Pictures\Documents\LTspiceXVII\Class Assignment3\Phase3\3Phase HWR R.asc

Direct Newton iteration for .op point succeeded.
Heightened Def Con from 0.00917 to 0.00917
Heightened Def Con from 0.01584 to 0.01584

Date: Tue Mar 26 10:38:11 2024
Total elapsed time: 0.252 seconds.

tnom = 27
temp = 27
method = modified trap
totiter = 25083
traniter = 25074
tranpoints = 9735
accept = 8226
rejected = 1511
matrix size = 88
fillins = 47
solver = Normal
Thread vector: 5.0/3.7[2] 1.3/1.5[1] 3.0/2.6[2] 0.2/4.0[1]  2592/500
Matrix Compiler1: 4.96 KB object code size  2.1/1.2/[0.5]
Matrix Compiler2: 6.58 KB object code size  0.7/1.1/[0.3]

