Circuit: * C:\Users\Jayaraj Chippada\OneDrive\Pictures\Documents\LTspiceXVII\Class Assignment3\Phase3\Phase3HWR.asc

Direct Newton iteration for .op point succeeded.

Date: Wed Mar 06 11:21:29 2024
Total elapsed time: 1.205 seconds.

tnom = 27
temp = 27
method = modified trap
totiter = 56610
traniter = 56601
tranpoints = 22522
accept = 18594
rejected = 3928
matrix size = 88
fillins = 47
solver = Normal
Thread vector: 9.0/6.9[2] 2.0/1.7[2] 4.5/2.8[2] 0.4/2.3[1]  2592/500
Matrix Compiler1: 4.96 KB object code size  1.9/1.0/[0.6]
Matrix Compiler2: 6.58 KB object code size  0.6/1.7/[0.7]

