Circuit: * D:\B Tech\Third Year\3_2\PE\Class_Participation\Class Assignment3\Inverter\FULL_BRIDGE.asc

Warning: Multiple definitions of model "2scr375p" Type: BJT
Warning: Multiple definitions of model "bc857b" Type: BJT
Warning: Multiple definitions of model "bc847c" Type: BJT
Warning: Multiple definitions of model "bc847b" Type: BJT
Direct Newton iteration for .op point succeeded.
Heightened Def Con from 0.000499998 to 0.0005
Heightened Def Con from 0.0005 to 0.0005
Heightened Def Con from 0.000946031 to 0.000946033
Heightened Def Con from 0.000946033 to 0.000946034
Heightened Def Con from 0.000946034 to 0.000946036
Heightened Def Con from 0.000995917 to 0.000995918
Heightened Def Con from 0.00099592 to 0.00099592
Heightened Def Con from 0.00099592 to 0.000995922
Heightened Def Con from 0.000995922 to 0.000995923
Heightened Def Con from 0.000995923 to 0.000995925
Heightened Def Con from 0.000998995 to 0.000998997
Heightened Def Con from 0.000999923 to 0.000999925
Heightened Def Con from 0.000999925 to 0.000999925
Heightened Def Con from 0.000999925 to 0.000999927
Heightened Def Con from 0.00147492 to 0.00147492
Heightened Def Con from 0.00147492 to 0.00147492
Heightened Def Con from 0.00149798 to 0.00149799
Heightened Def Con from 0.00149799 to 0.00149799
Heightened Def Con from 0.00149799 to 0.001498
Heightened Def Con from 0.001498 to 0.001498
Heightened Def Con from 0.00149902 to 0.00149902
Heightened Def Con from 0.00149902 to 0.00149902
Heightened Def Con from 0.00149902 +to 0.00149902
Heightened Def Con from 0.00149902 to 0.00149902
Heightened Def Con from 0.00149904 to 0.00149904
Heightened Def Con from 0.00149956 to 0.00149956
Heightened Def Con from 0.00149956 to 0.00149956
Heightened Def Con from 0.00149956 to 0.00149956
Heightened Def Con from 0.00149956 to 0.00149956
Heightened Def Con from 0.00149956 to 0.00149956
Heightened Def Con from 0.00149956 +to 0.00149956
Heightened Def Con from 0.00149956 to 0.00149956
Heightened Def Con from 0.00149956 to 0.00149957
Heightened Def Con from 0.00149957 to 0.00149957
Heightened Def Con from 0.00149957 to 0.00149957
Heightened Def Con from 0.00149957 to 0.00149957
Heightened Def Con from 0.00149957 +to 0.00149957
Heightened Def Con from 0.00149994 to 0.00149994
Heightened Def Con from 0.00149997 to 0.00149997
Heightened Def Con from 0.00149997 to 0.00149997
Heightened Def Con from 0.00149997 to 0.00149997
Heightened Def Con from 0.00149997 to 0.00149997
Heightened Def Con from 0.00149997 to 0.00149997
Heightened Def Con from 0.00149997 to 0.00149997
Heightened Def Con from 0.00149997 +to 0.00149998
Heightened Def Con from 0.00149998 to 0.00149998
Heightened Def Con from 0.00149998 +to 0.00149998
Heightened Def Con from 0.0015 to 0.0015
Heightened Def Con from 0.0015 to 0.0015
Heightened Def Con from 0.0015 +to 0.0015
Heightened Def Con from 0.0015 +to 0.0015
Heightened Def Con from 0.00199462 to 0.00199462
Heightened Def Con from 0.00199462 to 0.00199462
Heightened Def Con from 0.00199462 to 0.00199462
Heightened Def Con from 0.00199462 to 0.00199463
Heightened Def Con from 0.00199795 to 0.00199795
Heightened Def Con from 0.00199795 to 0.00199795
Heightened Def Con from 0.00199795 to 0.00199795
Heightened Def Con from 0.00199795 to 0.00199795
Heightened Def Con from 0.00199795 to 0.00199796
Heightened Def Con from 0.00199949 to 0.00199949
Heightened Def Con from 0.00199994 to 0.00199994
Heightened Def Con from 0.00199994 to 0.00199994
Heightened Def Con from 0.00199995 to 0.00199995
Heightened Def Con from 0.002 to 0.002
Heightened Def Con from 0.002 to 0.002
Heightened Def Con from 0.002 to 0.002
Heightened Def Con from 0.00246843 to 0.00246843
Heightened Def Con from 0.00246843 to 0.00246843
Heightened Def Con from 0.00246843 to 0.00246843
Heightened Def Con from 0.00248482 to 0.00248482
Heightened Def Con from 0.00248482 to 0.00248482
Heightened Def Con from 0.00248484 to 0.00248484
Heightened Def Con from 0.00248484 to 0.00248484
Heightened Def Con from 0.00248484 to 0.00248484
Heightened Def Con from 0.00248485 to 0.00248486
Heightened Def Con from 0.00249305 +to 0.00249305
Heightened Def Con from 0.00249306 ++to 0.00249306
Heightened Def Con from 0.00249306 to 0.00249306
Heightened Def Con from 0.00249306 to 0.00249306
Heightened Def Con from 0.00249306 to 0.00249306
Heightened Def Con from 0.00249306 +to 0.00249307
Heightened Def Con from 0.00249307 to 0.00249307
Heightened Def Con from 0.00249307 to 0.00249307
Heightened Def Con from 0.00249307 +to 0.00249307
Heightened Def Con from 0.00249307 to 0.00249307
Heightened Def Con from 0.00249307 to 0.00249307
Heightened Def Con from 0.00249308 +to 0.00249308
Heightened Def Con from 0.00249717 +to 0.00249718
Heightened Def Con from 0.00249898 +to 0.00249898
Heightened Def Con from 0.00249898 to 0.00249898
Heightened Def Con from 0.00249898 to 0.00249898
Heightened Def Con from 0.00249898 +to 0.00249898
Heightened Def Con from 0.00249898 to 0.00249898
Heightened Def Con from 0.00249898 to 0.00249898
Heightened Def Con from 0.00249949 to 0.0024995
Heightened Def Con from 0.0024995 to 0.0024995
Heightened Def Con from 0.0024995 to 0.00249951
Heightened Def Con from 0.00249951 to 0.00249951
Heightened Def Con from 0.00249951 to 0.00249951
Heightened Def Con from 0.00249951 to 0.00249951
Heightened Def Con from 0.00249951 ++to 0.00249951
Heightened Def Con from 0.00249951 to 0.00249951
Heightened Def Con from 0.00249952 to 0.00249952
Heightened Def Con from 0.00249977 to 0.00249978
Heightened Def Con from 0.00249978 to 0.00249978
Heightened Def Con from 0.00249978 to 0.00249978
Heightened Def Con from 0.00249978 ++to 0.00249978
Heightened Def Con from 0.00249978 to 0.00249978
Heightened Def Con from 0.00249978 to 0.00249978
Heightened Def Con from 0.00249978 ++to 0.00249978
Heightened Def Con from 0.00249991 to 0.00249991
Heightened Def Con from 0.00249991 to 0.00249991
Heightened Def Con from 0.00249991 +to 0.00249992
Heightened Def Con from 0.00249992 to 0.00249992
Heightened Def Con from 0.00249992 to 0.00249992
Heightened Def Con from 0.00249992 +to 0.00249992
Heightened Def Con from 0.00249992 +to 0.00249992
Heightened Def Con from 0.00249992 to 0.00249992
Heightened Def Con from 0.00249992 +to 0.00249992
Heightened Def Con from 0.00249997 to 0.00249997
Heightened Def Con from 0.00249997 +to 0.00249997
Heightened Def Con from 0.00249997 +to 0.00249997
Heightened Def Con from 0.00249997 to 0.00249997
Heightened Def Con from 0.00249997 to 0.00249997
Heightened Def Con from 0.00249997 to 0.00249997
Heightened Def Con from 0.00249997 to 0.00249997
Heightened Def Con from 0.00249997 +to 0.00249998
Heightened Def Con from 0.00249998 to 0.00249998
Heightened Def Con from 0.00249998 to 0.00249998
Heightened Def Con from 0.00249999 to 0.0025
Heightened Def Con from 0.0025 +to 0.0025
Heightened Def Con from 0.0025 to 0.0025
Heightened Def Con from 0.0025 to 0.0025
Heightened Def Con from 0.00299751 to 0.00299751
Heightened Def Con from 0.00299752 to 0.00299753
Heightened Def Con from 0.00299948 to 0.00299948
Heightened Def Con from 0.00299992 to 0.00299992
Heightened Def Con from 0.00299992 to 0.00299992
Heightened Def Con from 0.00299992 to 0.00299992
Heightened Def Con from 0.00299992 to 0.00299992
Heightened Def Con from 0.003 to 0.003
Heightened Def Con from 0.003 to 0.003
Heightened Def Con from 0.003 to 0.003
Heightened Def Con from 0.003 to 0.003
Heightened Def Con from 0.00347141 to 0.00347141
Heightened Def Con from 0.0034878 to 0.0034878
Heightened Def Con from 0.0034878 to 0.0034878
Heightened Def Con from 0.0034878 +to 0.0034878
Heightened Def Con from 0.003496 to 0.003496
Heightened Def Con from 0.003496 to 0.003496
Heightened Def Con from 0.003496 to 0.003496
Heightened Def Con from 0.003496 to 0.003496
Heightened Def Con from 0.00349601 ++to 0.00349601
Heightened Def Con from 0.00349601 +++to 0.00349601
Heightened Def Con from 0.00349806 +to 0.00349806
Heightened Def Con from 0.00349806 to 0.00349806
Heightened Def Con from 0.00349806 to 0.00349806
Heightened Def Con from 0.00349806 to 0.00349806
Heightened Def Con from 0.00349806 to 0.00349806
Heightened Def Con from 0.00349806 to 0.00349806
Heightened Def Con from 0.00349807 +to 0.00349807
Heightened Def Con from 0.00349909 to 0.00349909
Heightened Def Con from 0.00349909 to 0.00349909
Heightened Def Con from 0.00349909 to 0.00349909
Heightened Def Con from 0.00349909 +to 0.00349909
Heightened Def Con from 0.00349909 to 0.00349909
Heightened Def Con from 0.00349909 to 0.00349909
Heightened Def Con from 0.00349909 to 0.00349909
Heightened Def Con from 0.00349909 ++to 0.00349909
Heightened Def Con from 0.00349909 to 0.0034991
Heightened Def Con from 0.0034991 to 0.0034991
Heightened Def Con from 0.0034991 to 0.0034991
Heightened Def Con from 0.0034991 to 0.0034991
Heightened Def Con from 0.0034991 to 0.0034991
Heightened Def Con from 0.0034991 to 0.0034991
Heightened Def Con from 0.00349962 to 0.00349962
Heightened Def Con from 0.00349963 to 0.00349963
Heightened Def Con from 0.00349963 to 0.00349963
Heightened Def Con from 0.00349963 to 0.00349963
Heightened Def Con from 0.00349994 to 0.00349994
Heightened Def Con from 0.00349997 to 0.00349997
Heightened Def Con from 0.00349997 to 0.00349997
Heightened Def Con from 0.00349997 to 0.00349997
Heightened Def Con from 0.00349997 to 0.00349997
Heightened Def Con from 0.00349997 +to 0.00349998
Heightened Def Con from 0.00349999 +to 0.00349999
Heightened Def Con from 0.00349999 to 0.00349999
Heightened Def Con from 0.00349999 to 0.00349999
Heightened Def Con from 0.00349999 to 0.00349999
Heightened Def Con from 0.00349999 to 0.0035
Heightened Def Con from 0.0035 +to 0.0035
Heightened Def Con from 0.0035 to 0.0035
Heightened Def Con from 0.0035 to 0.0035
Heightened Def Con from 0.0035 to 0.0035
Heightened Def Con from 0.00399301 to 0.00399302
Heightened Def Con from 0.00399302 to 0.00399302
Heightened Def Con from 0.00399302 to 0.00399302
Heightened Def Con from 0.00399952 to 0.00399952
Heightened Def Con from 0.00399979 to 0.00399979
Heightened Def Con from 0.00399992 to 0.00399992
Heightened Def Con from 0.00399999 to 0.00399999
Heightened Def Con from 0.00399999 to 0.00399999
Heightened Def Con from 0.004 to 0.004
Heightened Def Con from 0.004 to 0.004
Heightened Def Con from 0.00444186 +to 0.00444186
Heightened Def Con from 0.00444186 ++to 0.00444186
Heightened Def Con from 0.00444187 to 0.00444187
Heightened Def Con from 0.00444187 to 0.00444187
Heightened Def Con from 0.00447464 to 0.00447464
Heightened Def Con from 0.00447464 to 0.00447464
Heightened Def Con from 0.00447464 to 0.00447464
Heightened Def Con from 0.00447464 ++to 0.00447464
Heightened Def Con from 0.00447464 to 0.00447464
Heightened Def Con from 0.00447464 +to 0.00447464
Heightened Def Con from 0.00447464 ++to 0.00447464
Heightened Def Con from 0.00447465 to 0.00447465
Heightened Def Con from 0.00447466 +to 0.00447466
Heightened Def Con from 0.00447466 to 0.00447467
Heightened Def Con from 0.00449105 to 0.00449105
Heightened Def Con from 0.00449105 to 0.00449105
Heightened Def Con from 0.00449105 to 0.00449105
Heightened Def Con from 0.00449105 to 0.00449105
Heightened Def Con from 0.00449105 +++to 0.00449105
Heightened Def Con from 0.00449741 +to 0.00449741
Heightened Def Con from 0.00449741 to 0.00449742
Heightened Def Con from 0.00449742 to 0.00449742
Heightened Def Con from 0.00449898 +++to 0.00449898
Heightened Def Con from 0.00449898 to 0.00449898
Heightened Def Con from 0.00449898 to 0.00449898
Heightened Def Con from 0.00449975 to 0.00449975
Heightened Def Con from 0.00449975 to 0.00449975
Heightened Def Con from 0.00449975 +to 0.00449975
Heightened Def Con from 0.00449976 to 0.00449976
Heightened Def Con from 0.00449976 ++++to 0.00449976
Heightened Def Con from 0.00449976 to 0.00449976
Heightened Def Con from 0.00449976 to 0.00449976
Heightened Def Con from 0.00449976 +to 0.00449976
Heightened Def Con from 0.00449976 to 0.00449976
Heightened Def Con from 0.00449976 to 0.00449976
Heightened Def Con from 0.00449976 +to 0.00449976
Heightened Def Con from 0.00449976 to 0.00449977
Heightened Def Con from 0.00449977 to 0.00449977
Heightened Def Con from 0.00449977 to 0.00449977
Heightened Def Con from 0.00449989 to 0.0044999
Heightened Def Con from 0.00449998 to 0.00449998
Heightened Def Con from 0.00449998 ++++to 0.00449998
Heightened Def Con from 0.00449999 to 0.00449999
Heightened Def Con from 0.00449999 to 0.00449999
Heightened Def Con from 0.0045 to 0.0045
Heightened Def Con from 0.0045 to 0.0045
Heightened Def Con from 0.0045 to 0.0045
Heightened Def Con from 0.0045 to 0.0045
Heightened Def Con from 0.0045 to 0.0045
Heightened Def Con from 0.0045 to 0.0045
Heightened Def Con from 0.00494141 to 0.00494141
Heightened Def Con from 0.00494141 to 0.00494142
Heightened Def Con from 0.00497418 to 0.00497419
Heightened Def Con from 0.00497421 to 0.00497421
Heightened Def Con from 0.00497421 to 0.00497421
Heightened Def Con from 0.00497421 to 0.00497421
Heightened Def Con from 0.00497421 to 0.00497421
Heightened Def Con from 0.00497421 to 0.00497421
Heightened Def Con from 0.00497422 to 0.00497422
Heightened Def Con from 0.00497422 to 0.00497422
Heightened Def Con from 0.00497422 to 0.00497422
Heightened Def Con from 0.00499062 to 0.00499062
Heightened Def Con from 0.00499062 to 0.00499063
Heightened Def Con from 0.00499063 to 0.00499063
Heightened Def Con from 0.00499063 to 0.00499063
Heightened Def Con from 0.00499063 to 0.00499063
Heightened Def Con from 0.00499063 to 0.00499063
Heightened Def Con from 0.00499063 to 0.00499064
Heightened Def Con from 0.00499765 to 0.00499765
Heightened Def Con from 0.00499765 to 0.00499766
Heightened Def Con from 0.00499766 to 0.00499767
Heightened Def Con from 0.00499767 to 0.00499767
Heightened Def Con from 0.00499767 to 0.00499767
Heightened Def Con from 0.00499772 to 0.00499772
Heightened Def Con from 0.00499772 to 0.00499772
Heightened Def Con from 0.00499983 to 0.00499983
Heightened Def Con from 0.00499994 to 0.00499995
Heightened Def Con from 0.00499999 to 0.00499999
Heightened Def Con from 0.00499999 to 0.005
Heightened Def Con from 0.00547417 to 0.00547417
Heightened Def Con from 0.00547417 to 0.00547417
Heightened Def Con from 0.00547417 ++to 0.00547417
Heightened Def Con from 0.00547417 +to 0.00547417
Heightened Def Con from 0.00547418 +to 0.00547418
Heightened Def Con from 0.00547418 to 0.00547418
Heightened Def Con from 0.00549056 to 0.00549056
Heightened Def Con from 0.00549056 to 0.00549056
Heightened Def Con from 0.00549056 to 0.00549057
Heightened Def Con from 0.00549751 to 0.00549751
Heightened Def Con from 0.00549751 to 0.00549751
Heightened Def Con from 0.00549751 to 0.00549752
Heightened Def Con from 0.00549943 to 0.00549943
Heightened Def Con from 0.00549943 to 0.00549943
Heightened Def Con from 0.00549943 to 0.00549943
Heightened Def Con from 0.00549943 to 0.00549944
Heightened Def Con from 0.00549944 to 0.00549944
Heightened Def Con from 0.00549944 +to 0.00549944
Heightened Def Con from 0.00549944 to 0.00549944
Heightened Def Con from 0.00549944 to 0.00549944
Heightened Def Con from 0.00549944 to 0.00549944
Heightened Def Con from 0.00549944 to 0.00549944
Heightened Def Con from 0.00549944 ++to 0.00549944
Heightened Def Con from 0.00549944 to 0.00549944
Heightened Def Con from 0.00549944 ++to 0.00549944
Heightened Def Con from 0.00549945 to 0.00549945
Heightened Def Con from 0.00549945 +to 0.00549945
Heightened Def Con from 0.00549945 to 0.00549945
Heightened Def Con from 0.00549945 to 0.00549945
Heightened Def Con from 0.00549945 to 0.00549945
Heightened Def Con from 0.00549986 to 0.00549986
Heightened Def Con from 0.00549987 to 0.00549987
Heightened Def Con from 0.00549997 to 0.00549997
Heightened Def Con from 0.00549997 to 0.00549997
Heightened Def Con from 0.00549997 to 0.00549997
Heightened Def Con from 0.00549997 to 0.00549998
Heightened Def Con from 0.00549999 to 0.00549999
Heightened Def Con from 0.00549999 +to 0.00549999
Heightened Def Con from 0.00549999 to 0.00549999
Heightened Def Con from 0.00549999 to 0.00549999
Heightened Def Con from 0.0055 to 0.0055
Heightened Def Con from 0.0055 to 0.0055
Heightened Def Con from 0.0055 to 0.0055
Heightened Def Con from 0.00594141 to 0.00594141
Heightened Def Con from 0.00594141 to 0.00594141
Heightened Def Con from 0.00594141 to 0.00594141
Heightened Def Con from 0.00597418 to 0.00597419
Heightened Def Con from 0.00597419 to 0.00597419
Heightened Def Con from 0.00599058 to 0.00599059
Heightened Def Con from 0.00599756 to 0.00599756
Heightened Def Con from 0.00599988 to 0.00599988
Heightened Def Con from 0.00599995 to 0.00599995
Heightened Def Con from 0.00599995 to 0.00599995
Heightened Def Con from 0.00599995 to 0.00599995
Heightened Def Con from 0.006 to 0.006
Heightened Def Con from 0.00644141 to 0.00644141
Heightened Def Con from 0.00647418 to 0.00647418
Heightened Def Con from 0.00647418 to 0.00647418
Heightened Def Con from 0.00647418 to 0.00647418
Heightened Def Con from 0.00647418 to 0.00647418
Heightened Def Con from 0.00647418 to 0.00647418
Heightened Def Con from 0.00647418 to 0.00647418
Heightened Def Con from 0.00647418 to 0.00647419
Heightened Def Con from 0.00647419 to 0.00647419
Heightened Def Con from 0.00647419 to 0.00647419
Heightened Def Con from 0.00647419 to 0.00647419
Heightened Def Con from 0.00647419 to 0.00647419
Heightened Def Con from 0.00647419 +to 0.0064742
Heightened Def Con from 0.0064742 to 0.0064742
Heightened Def Con from 0.0064742 to 0.0064742
Heightened Def Con from 0.0064742 to 0.0064742
Heightened Def Con from 0.0064742 ++to 0.0064742
Heightened Def Con from 0.00647421 to 0.00647421
Heightened Def Con from 0.00647421 +to 0.00647421
Heightened Def Con from 0.00647421 to 0.00647421
Heightened Def Con from 0.00647421 to 0.00647421
Heightened Def Con from 0.00647421 to 0.00647421
Heightened Def Con from 0.00647421 to 0.00647421
Heightened Def Con from 0.00647421 to 0.00647421
Heightened Def Con from 0.00647422 ++to 0.00647422
Heightened Def Con from 0.0064906 to 0.0064906
Heightened Def Con from 0.0064906 to 0.0064906
Heightened Def Con from 0.0064906 to 0.0064906
Heightened Def Con from 0.0064906 to 0.0064906
Heightened Def Con from 0.0064906 +to 0.0064906
Heightened Def Con from 0.00649759 to 0.00649759
Heightened Def Con from 0.00649759 to 0.00649759
Heightened Def Con from 0.00649759 to 0.00649759
Heightened Def Con from 0.00649969 to 0.00649969
Heightened Def Con from 0.00649969 +to 0.00649969
Heightened Def Con from 0.00649969 to 0.0064997
Heightened Def Con from 0.0064997 to 0.0064997
Heightened Def Con from 0.0064997 to 0.0064997
Heightened Def Con from 0.0064997 +to 0.0064997
Heightened Def Con from 0.0064997 +to 0.0064997
Heightened Def Con from 0.00649995 to 0.00649995
Heightened Def Con from 0.00649995 to 0.00649996
Heightened Def Con from 0.00649996 +to 0.00649996
Heightened Def Con from 0.00649996 to 0.00649996
Heightened Def Con from 0.00649996 to 0.00649996
Heightened Def Con from 0.00649996 to 0.00649996
Heightened Def Con from 0.00649996 to 0.00649996
Heightened Def Con from 0.00649996 to 0.00649996
Heightened Def Con from 0.00649996 +to 0.00649996
Heightened Def Con from 0.00649996 to 0.00649996
Heightened Def Con from 0.00649996 to 0.00649996
Heightened Def Con from 0.00649996 to 0.00649997
Heightened Def Con from 0.00649999 to 0.00649999
Heightened Def Con from 0.00649999 to 0.00649999
Heightened Def Con from 0.00649999 to 0.00649999
Heightened Def Con from 0.00649999 to 0.0065
Heightened Def Con from 0.0065 +to 0.0065
Heightened Def Con from 0.0065 to 0.0065
Heightened Def Con from 0.00699664 to 0.00699664
Heightened Def Con from 0.00699664 to 0.00699664
Heightened Def Con from 0.00699665 to 0.00699665
Heightened Def Con from 0.0069987 to 0.0069987
Heightened Def Con from 0.00699949 to 0.00699949
Heightened Def Con from 0.00699949 to 0.00699949
Heightened Def Con from 0.00699949 to 0.00699949
Heightened Def Con from 0.00699949 to 0.00699949
Heightened Def Con from 0.00699949 to 0.00699949
Heightened Def Con from 0.0069995 to 0.0069995
Heightened Def Con from 0.0069995 to 0.0069995
Heightened Def Con from 0.0069995 to 0.00699951
Heightened Def Con from 0.00699951 to 0.00699951
Heightened Def Con from 0.00699951 to 0.00699951
Heightened Def Con from 0.00699953 to 0.00699953
Heightened Def Con from 0.00699953 to 0.00699953
Heightened Def Con from 0.00699978 to 0.00699979
Heightened Def Con from 0.00699991 to 0.00699991
Heightened Def Con from 0.00699991 to 0.00699991
Heightened Def Con from 0.00699991 to 0.00699992
Heightened Def Con from 0.007 to 0.007
Heightened Def Con from 0.007 to 0.007
Heightened Def Con from 0.00746484 to 0.00746484
Heightened Def Con from 0.00746484 +to 0.00746484
Heightened Def Con from 0.00746484 to 0.00746484
Heightened Def Con from 0.00746484 to 0.00746484
Heightened Def Con from 0.00746484 to 0.00746484
Heightened Def Con from 0.00746484 +to 0.00746484
Heightened Def Con from 0.00749449 +to 0.00749449
Heightened Def Con from 0.00749449 to 0.00749449
Heightened Def Con from 0.00749449 to 0.00749449
Heightened Def Con from 0.00749449 to 0.0074945
Heightened Def Con from 0.0074945 to 0.0074945
Heightened Def Con from 0.0074945 to 0.00749451
Heightened Def Con from 0.00749796 to 0.00749796
Heightened Def Con from 0.00749949 +to 0.00749949
Heightened Def Con from 0.00749949 +to 0.00749949
Heightened Def Con from 0.00749976 to 0.00749976
Heightened Def Con from 0.00749976 to 0.00749976
Heightened Def Con from 0.00749976 to 0.00749976
Heightened Def Con from 0.00749976 ++to 0.00749976
Heightened Def Con from 0.00749976 to 0.00749976
Heightened Def Con from 0.00749976 to 0.00749976
Heightened Def Con from 0.00749976 to 0.00749976
Heightened Def Con from 0.00749976 to 0.00749976
Heightened Def Con from 0.00749976 to 0.00749976
Heightened Def Con from 0.00749976 to 0.00749977
Heightened Def Con from 0.00749977 to 0.00749977
Heightened Def Con from 0.00749977 to 0.00749977
Heightened Def Con from 0.00749977 to 0.00749977
Heightened Def Con from 0.00749977 to 0.00749977
Heightened Def Con from 0.00749977 to 0.00749977
Heightened Def Con from 0.00749977 to 0.00749977
Heightened Def Con from 0.00749977 to 0.00749977
Heightened Def Con from 0.00749977 +to 0.00749977
Heightened Def Con from 0.00749977 to 0.00749978
Heightened Def Con from 0.00749992 to 0.00749992
Heightened Def Con from 0.00749997 to 0.00749997
Heightened Def Con from 0.00749997 to 0.00749997
Heightened Def Con from 0.00749997 to 0.00749997
Heightened Def Con from 0.00749997 to 0.00749998
Heightened Def Con from 0.00749998 to 0.00749998
Heightened Def Con from 0.00749998 +to 0.00749998
Heightened Def Con from 0.0075 to 0.0075
Heightened Def Con from 0.0075 to 0.0075
Heightened Def Con from 0.0075 +to 0.0075
Heightened Def Con from 0.00799923 to 0.00799923
Heightened Def Con from 0.00799923 to 0.00799923
Heightened Def Con from 0.00799974 to 0.00799975
Heightened Def Con from 0.00799976 to 0.00799976
Heightened Def Con from 0.00799976 to 0.00799976
Heightened Def Con from 0.00799977 to 0.00799977
Heightened Def Con from 0.00799977 to 0.00799977
Heightened Def Con from 0.00799977 to 0.00799977
Heightened Def Con from 0.00799977 to 0.00799978
Heightened Def Con from 0.00799991 to 0.00799991
Heightened Def Con from 0.00799991 to 0.00799991
Heightened Def Con from 0.00799991 to 0.00799991
Heightened Def Con from 0.00799991 to 0.00799991
Heightened Def Con from 0.00799991 to 0.00799991
Heightened Def Con from 0.00799997 to 0.00799997
Heightened Def Con from 0.00799997 to 0.00799997
Heightened Def Con from 0.00844141 to 0.00844141
Heightened Def Con from 0.00844141 to 0.00844141
Heightened Def Con from 0.00844141 to 0.00844141
Heightened Def Con from 0.00844141 to 0.00844141
Heightened Def Con from 0.00844141 to 0.00844141
Heightened Def Con from 0.00844141 to 0.00844141
Heightened Def Con from 0.00844141 +to 0.00844141
Heightened Def Con from 0.00847418 to 0.00847418
Heightened Def Con from 0.00847418 to 0.00847418
Heightened Def Con from 0.00847418 +to 0.00847418
Heightened Def Con from 0.00847418 to 0.00847419
Heightened Def Con from 0.00847419 +to 0.00847419
Heightened Def Con from 0.00847419 to 0.00847419
Heightened Def Con from 0.00847419 +to 0.00847419
Heightened Def Con from 0.00847419 to 0.00847419
Heightened Def Con from 0.00847419 +++to 0.00847419
Heightened Def Con from 0.0084742 ++to 0.0084742
Heightened Def Con from 0.0084742 +++to 0.0084742
Heightened Def Con from 0.00847422 to 0.00847422
Heightened Def Con from 0.00847422 to 0.00847422
Heightened Def Con from 0.00847422 to 0.00847422
Heightened Def Con from 0.00847422 to 0.00847422
Heightened Def Con from 0.00847422 to 0.00847422
Heightened Def Con from 0.00847422 to 0.00847422
Heightened Def Con from 0.00847422 to 0.00847422
Heightened Def Con from 0.00847422 to 0.00847423
Heightened Def Con from 0.00847423 to 0.00847423
Heightened Def Con from 0.00847423 to 0.00847423
Heightened Def Con from 0.00847423 to 0.00847423
Heightened Def Con from 0.00847423 to 0.00847423
Heightened Def Con from 0.00847423 to 0.00847423
Heightened Def Con from 0.00847423 +to 0.00847423
Heightened Def Con from 0.00847423 +to 0.00847423
Heightened Def Con from 0.00849062 to 0.00849062
Heightened Def Con from 0.00849062 to 0.00849062
Heightened Def Con from 0.00849062 to 0.00849062
Heightened Def Con from 0.00849062 to 0.00849062
Heightened Def Con from 0.00849934 to 0.00849934
Heightened Def Con from 0.00849974 to 0.00849974
Heightened Def Con from 0.00849974 +++to 0.00849975
Heightened Def Con from 0.00849987 to 0.00849987
Heightened Def Con from 0.00849987 +to 0.00849987
Heightened Def Con from 0.00849987 +to 0.00849987
Heightened Def Con from 0.00849988 to 0.00849988
Heightened Def Con from 0.00849988 to 0.00849988
Heightened Def Con from 0.00849988 +to 0.00849988
Heightened Def Con from 0.00849988 to 0.00849988
Heightened Def Con from 0.00849988 to 0.00849988
Heightened Def Con from 0.00849989 to 0.00849989
Heightened Def Con from 0.00849995 to 0.00849995
Heightened Def Con from 0.00849995 to 0.00849995
Heightened Def Con from 0.00849999 +to 0.00849999
Heightened Def Con from 0.00849999 +to 0.00849999
Heightened Def Con from 0.0085 to 0.0085
Heightened Def Con from 0.0085 +to 0.0085
Heightened Def Con from 0.00897249 to 0.00897249
Heightened Def Con from 0.00898892 to 0.00898892
Heightened Def Con from 0.00898892 to 0.00898892
Heightened Def Con from 0.00899591 to 0.00899591
Heightened Def Con from 0.00899592 to 0.00899592
Heightened Def Con from 0.00899798 to 0.00899798
Heightened Def Con from 0.00899798 to 0.00899798
Heightened Def Con from 0.00899901 to 0.00899901
Heightened Def Con from 0.00899978 to 0.00899978
Heightened Def Con from 0.009 to 0.009
Heightened Def Con from 0.00947417 to 0.00947417
Heightened Def Con from 0.00947417 +to 0.00947418
Heightened Def Con from 0.00947418 to 0.00947418
Heightened Def Con from 0.00947418 to 0.00947418
Heightened Def Con from 0.00947418 to 0.00947418
Heightened Def Con from 0.00947418 to 0.00947418
Heightened Def Con from 0.00947418 to 0.00947418
Heightened Def Con from 0.00949056 to 0.00949056
Heightened Def Con from 0.00949057 to 0.00949057
Heightened Def Con from 0.00949057 to 0.00949057
Heightened Def Con from 0.00949057 +to 0.00949057
Heightened Def Con from 0.00949057 to 0.00949057
Heightened Def Con from 0.00949753 to 0.00949753
Heightened Def Con from 0.00949753 +to 0.00949753
Heightened Def Con from 0.00949753 to 0.00949753
Heightened Def Con from 0.00949753 to 0.00949754
Heightened Def Con from 0.00949754 to 0.00949754
Heightened Def Con from 0.00949754 +to 0.00949754
Heightened Def Con from 0.0095 to 0.0095
Heightened Def Con from 0.0095 +to 0.0095
Heightened Def Con from 0.0095 to 0.0095
Heightened Def Con from 0.00999531 to 0.00999532
Heightened Def Con from 0.00999532 to 0.00999532
Heightened Def Con from 0.00999534 to 0.00999534
Heightened Def Con from 0.00999534 to 0.00999534
Heightened Def Con from 0.00999891 to 0.00999891
Heightened Def Con from 0.00999984 to 0.00999984
Heightened Def Con from 0.00999984 to 0.00999984
Heightened Def Con from 0.00999999 to 0.00999999
Heightened Def Con from 0.00999999 to 0.00999999
Heightened Def Con from 0.00999999 to 0.00999999
Heightened Def Con from 0.00999999 to 0.00999999
Heightened Def Con from 0.00999999 to 0.00999999
Heightened Def Con from 0.01 to 0.01
Heightened Def Con from 0.01 to 0.01
Heightened Def Con from 0.010461 to 0.010461
Heightened Def Con from 0.010461 to 0.010461
Heightened Def Con from 0.010461 to 0.010461
Heightened Def Con from 0.010461 to 0.010461
Heightened Def Con from 0.010461 to 0.010461
Heightened Def Con from 0.010461 to 0.010461
Heightened Def Con from 0.010461 to 0.010461
Heightened Def Con from 0.010461 +to 0.010461
Heightened Def Con from 0.0104964 to 0.0104964
Heightened Def Con from 0.0104964 to 0.0104964
Heightened Def Con from 0.0104964 to 0.0104964
Heightened Def Con from 0.0104984 to 0.0104984
Heightened Def Con from 0.0104984 to 0.0104984
Heightened Def Con from 0.0104985 +to 0.0104985
Heightened Def Con from 0.0104995 to 0.0104995
Heightened Def Con from 0.0104995 to 0.0104995
Heightened Def Con from 0.0104995 to 0.0104995
Heightened Def Con from 0.0104995 to 0.0104995
Heightened Def Con from 0.0104995 +to 0.0104995
Heightened Def Con from 0.0104995 to 0.0104995
Heightened Def Con from 0.0105 to 0.0105
Heightened Def Con from 0.0105 to 0.0105
Heightened Def Con from 0.0105 +to 0.0105
Heightened Def Con from 0.0105 to 0.0105
Heightened Def Con from 0.0105 to 0.0105
Heightened Def Con from 0.0105 +to 0.0105
Heightened Def Con from 0.0105 to 0.0105
Heightened Def Con from 0.0105 to 0.0105
Heightened Def Con from 0.0105 to 0.0105
Heightened Def Con from 0.0105021 to 0.0105021
Heightened Def Con from 0.0109414 to 0.0109414
Heightened Def Con from 0.0109906 to 0.0109906
Heightened Def Con from 0.0109906 to 0.0109906
Heightened Def Con from 0.0109906 to 0.0109906
Heightened Def Con from 0.0109977 to 0.0109977
Heightened Def Con from 0.0109977 to 0.0109977
Heightened Def Con from 0.0109977 to 0.0109977
Heightened Def Con from 0.0109977 to 0.0109977
Heightened Def Con from 0.0109977 to 0.0109977
Heightened Def Con from 0.0109995 to 0.0109995
Heightened Def Con from 0.0109995 to 0.0109995
Heightened Def Con from 0.0109995 to 0.0109995
Heightened Def Con from 0.0109995 to 0.0109995
Heightened Def Con from 0.0109995 to 0.0109995
Heightened Def Con from 0.0109995 to 0.0109995
Heightened Def Con from 0.0109995 to 0.0109995
Heightened Def Con from 0.0109995 to 0.0109995
Heightened Def Con from 0.0109995 to 0.0109995
Heightened Def Con from 0.0109995 to 0.0109995
Heightened Def Con from 0.0109997 to 0.0109998
Heightened Def Con from 0.0109998 to 0.0109998
Heightened Def Con from 0.0109998 to 0.0109998
Heightened Def Con from 0.0109998 to 0.0109998
Heightened Def Con from 0.0109999 to 0.0109999
Heightened Def Con from 0.0109999 to 0.0109999
Heightened Def Con from 0.0109999 to 0.0109999
Heightened Def Con from 0.011 to 0.011
Heightened Def Con from 0.011 to 0.011
Heightened Def Con from 0.0114933 to 0.0114933
Heightened Def Con from 0.0114933 to 0.0114933
Heightened Def Con from 0.0114933 +to 0.0114933
Heightened Def Con from 0.0114933 to 0.0114933
Heightened Def Con from 0.0114933 to 0.0114933
Heightened Def Con from 0.0114933 +to 0.0114933
Heightened Def Con from 0.0114933 to 0.0114933
Heightened Def Con from 0.0114933 to 0.0114933
Heightened Def Con from 0.0114933 to 0.0114933
Heightened Def Con from 0.0114933 to 0.0114933
Heightened Def Con from 0.0114933 ++to 0.0114933
Heightened Def Con from 0.0114974 to 0.0114974
Heightened Def Con from 0.0114974 to 0.0114974
Heightened Def Con from 0.0114974 ++to 0.0114974
Heightened Def Con from 0.0114974 ++to 0.0114974
Heightened Def Con from 0.0114974 +to 0.0114974
Heightened Def Con from 0.0114974 to 0.0114974
Heightened Def Con from 0.0114974 to 0.0114974
Heightened Def Con from 0.0114974 to 0.0114974
Heightened Def Con from 0.0114974 to 0.0114974
Heightened Def Con from 0.011499 to 0.011499
Heightened Def Con from 0.011499 to 0.011499
Heightened Def Con from 0.011499 to 0.011499
Heightened Def Con from 0.011499 to 0.011499
Heightened Def Con from 0.011499 to 0.011499
Heightened Def Con from 0.011499 to 0.011499
Heightened Def Con from 0.011499 ++to 0.011499
Heightened Def Con from 0.0115 to 0.0115
Heightened Def Con from 0.0115 to 0.0115
Heightened Def Con from 0.0115 to 0.0115
Heightened Def Con from 0.0119982 to 0.0119982
Heightened Def Con from 0.0119982 to 0.0119982
Heightened Def Con from 0.0119982 to 0.0119982
Heightened Def Con from 0.0119982 to 0.0119982
Heightened Def Con from 0.0119982 to 0.0119982
Heightened Def Con from 0.0119997 to 0.0119997
Heightened Def Con from 0.0119997 to 0.0119998
Heightened Def Con from 0.0124701 to 0.0124701
Heightened Def Con from 0.0124701 to 0.0124701
Heightened Def Con from 0.0124701 ++to 0.0124701
Heightened Def Con from 0.0124701 to 0.0124701
Heightened Def Con from 0.0124701 to 0.0124701
Heightened Def Con from 0.0124701 to 0.0124701
Heightened Def Con from 0.0124701 to 0.0124701
Heightened Def Con from 0.0124701 to 0.0124701
Heightened Def Con from 0.0124701 +to 0.0124701
Heightened Def Con from 0.0124865 ++to 0.0124865
Heightened Def Con from 0.0124947 to 0.0124947
Heightened Def Con from 0.0124947 to 0.0124947
Heightened Def Con from 0.0124947 to 0.0124947
Heightened Def Con from 0.0124947 to 0.0124947
Heightened Def Con from 0.0124947 to 0.0124947
Heightened Def Con from 0.0124947 +to 0.0124947
Heightened Def Con from 0.0124947 to 0.0124947
Heightened Def Con from 0.0124947 to 0.0124947
Heightened Def Con from 0.012498 to 0.012498
Heightened Def Con from 0.012498 to 0.012498
Heightened Def Con from 0.012498 to 0.012498
Heightened Def Con from 0.012499 to 0.012499
Heightened Def Con from 0.012499 to 0.012499
Heightened Def Con from 0.012499 to 0.012499
Heightened Def Con from 0.012499 to 0.012499
Heightened Def Con from 0.012499 to 0.012499
Heightened Def Con from 0.012499 to 0.012499
Heightened Def Con from 0.012499 +to 0.012499
Heightened Def Con from 0.0124995 to 0.0124995
Heightened Def Con from 0.0124995 to 0.0124995
Heightened Def Con from 0.0124995 to 0.0124995
Heightened Def Con from 0.0125 to 0.0125
Heightened Def Con from 0.0125 +to 0.0125
Heightened Def Con from 0.0125 to 0.0125
Heightened Def Con from 0.0125 ++to 0.0125
Heightened Def Con from 0.0125 to 0.0125
Heightened Def Con from 0.0125 to 0.0125
Heightened Def Con from 0.0125 to 0.0125
Heightened Def Con from 0.0125 +to 0.0125
Heightened Def Con from 0.0125 to 0.0125
Heightened Def Con from 0.0125 to 0.0125
Heightened Def Con from 0.0125 to 0.0125
Heightened Def Con from 0.0125 +to 0.0125
Heightened Def Con from 0.0125 +to 0.0125
Heightened Def Con from 0.0125 to 0.0125
Heightened Def Con from 0.0125 to 0.0125
Heightened Def Con from 0.0125 to 0.0125
Heightened Def Con from 0.0125 to 0.0125
Heightened Def Con from 0.0125 +to 0.0125
Heightened Def Con from 0.0129444 to 0.0129444
Heightened Def Con from 0.0129444 to 0.0129444
Heightened Def Con from 0.0129772 to 0.0129772
Heightened Def Con from 0.0129772 to 0.0129772
Heightened Def Con from 0.0129772 to 0.0129772
Heightened Def Con from 0.0129959 to 0.0129959
Heightened Def Con from 0.012998 to 0.012998
Heightened Def Con from 0.012998 to 0.012998
Heightened Def Con from 0.012998 to 0.012998
Heightened Def Con from 0.012998 to 0.012998
Heightened Def Con from 0.012998 to 0.012998
Heightened Def Con from 0.012999 to 0.012999
Heightened Def Con from 0.012999 +to 0.012999
Heightened Def Con from 0.012999 to 0.012999
Heightened Def Con from 0.0129995 to 0.0129995
Heightened Def Con from 0.0129995 to 0.0129995
Heightened Def Con from 0.0129995 to 0.0129995
Heightened Def Con from 0.0129995 to 0.0129995
Heightened Def Con from 0.0129995 to 0.0129995
Heightened Def Con from 0.0129995 to 0.0129995
Heightened Def Con from 0.0129995 to 0.0129995
Heightened Def Con from 0.0129995 to 0.0129995
Heightened Def Con from 0.013 to 0.013
Heightened Def Con from 0.013 to 0.013
Heightened Def Con from 0.013 to 0.013
Heightened Def Con from 0.013 to 0.013
Heightened Def Con from 0.013 to 0.013
Heightened Def Con from 0.013 to 0.013
Heightened Def Con from 0.013 to 0.013
Heightened Def Con from 0.0134959 to 0.0134959
Heightened Def Con from 0.0134959 to 0.0134959
Heightened Def Con from 0.0134959 to 0.0134959
Heightened Def Con from 0.0134959 to 0.0134959
Heightened Def Con from 0.0134959 to 0.0134959
Heightened Def Con from 0.0134959 to 0.0134959
Heightened Def Con from 0.0134959 to 0.0134959
Heightened Def Con from 0.0134959 +to 0.0134959
Heightened Def Con from 0.0134959 to 0.0134959
Heightened Def Con from 0.0134959 to 0.0134959
Heightened Def Con from 0.0134959 to 0.0134959
Heightened Def Con from 0.0134959 to 0.0134959
Heightened Def Con from 0.0134959 ++to 0.0134959
Heightened Def Con from 0.0134959 to 0.0134959
Heightened Def Con from 0.0134959 to 0.0134959
Heightened Def Con from 0.0134959 to 0.0134959
Heightened Def Con from 0.0134959 to 0.0134959
Heightened Def Con from 0.0134959 to 0.0134959
Heightened Def Con from 0.0134959 to 0.0134959
Heightened Def Con from 0.0134959 to 0.0134959
Heightened Def Con from 0.0134959 to 0.0134959
Heightened Def Con from 0.0134959 to 0.013496
Heightened Def Con from 0.013496 +to 0.013496
Heightened Def Con from 0.013496 to 0.013496
Heightened Def Con from 0.013496 +to 0.013496
Heightened Def Con from 0.013496 to 0.013496
Heightened Def Con from 0.013499 to 0.013499
Heightened Def Con from 0.013499 to 0.013499
Heightened Def Con from 0.013499 to 0.013499
Heightened Def Con from 0.0134995 to 0.0134995
Heightened Def Con from 0.0134995 to 0.0134995
Heightened Def Con from 0.0134995 +to 0.0134996
Heightened Def Con from 0.0134996 to 0.0134996
Heightened Def Con from 0.0134996 to 0.0134996
Heightened Def Con from 0.0134999 to 0.0134999
Heightened Def Con from 0.0134999 ++to 0.0134999
Heightened Def Con from 0.0135 +to 0.0135
Heightened Def Con from 0.0135 to 0.0135
Heightened Def Con from 0.0135 ++to 0.0135
Heightened Def Con from 0.0135 to 0.0135
Heightened Def Con from 0.0135 to 0.0135
Heightened Def Con from 0.0135 ++to 0.0135
Heightened Def Con from 0.0135 to 0.0135
Heightened Def Con from 0.0135 to 0.0135
Heightened Def Con from 0.0135 to 0.0135
Heightened Def Con from 0.0135 to 0.0135
Heightened Def Con from 0.0135 to 0.0135
Heightened Def Con from 0.0135 to 0.0135
Heightened Def Con from 0.0135 to 0.0135
Heightened Def Con from 0.0135 +to 0.0135
Heightened Def Con from 0.0135 to 0.0135
Heightened Def Con from 0.0139843 to 0.0139843
Heightened Def Con from 0.0139966 to 0.0139966
Heightened Def Con from 0.0139966 to 0.0139966
Heightened Def Con from 0.0139966 to 0.0139966
Heightened Def Con from 0.0139966 to 0.0139966
Heightened Def Con from 0.0139966 to 0.0139966
Heightened Def Con from 0.0139966 to 0.0139966
Heightened Def Con from 0.0139966 to 0.0139966
Heightened Def Con from 0.0139966 to 0.0139966
Heightened Def Con from 0.014 to 0.014
Heightened Def Con from 0.014 to 0.014
Heightened Def Con from 0.014 to 0.014
Heightened Def Con from 0.0144641 to 0.0144641
Heightened Def Con from 0.0144641 to 0.0144641
Heightened Def Con from 0.0144898 to 0.0144898
Heightened Def Con from 0.0144898 to 0.0144898
Heightened Def Con from 0.0144898 +to 0.0144898
Heightened Def Con from 0.0144898 to 0.0144898
Heightened Def Con from 0.0144898 to 0.0144898
Heightened Def Con from 0.0144898 to 0.0144898
Heightened Def Con from 0.0144898 +to 0.0144898
Heightened Def Con from 0.0144898 to 0.0144898
Heightened Def Con from 0.0144898 to 0.0144898
Heightened Def Con from 0.0144898 +to 0.0144898
Heightened Def Con from 0.0144898 to 0.0144898
Heightened Def Con from 0.0144898 +to 0.0144898
Heightened Def Con from 0.0144898 to 0.0144898
Heightened Def Con from 0.0144898 +to 0.0144898
Heightened Def Con from 0.0144898 to 0.0144898
Heightened Def Con from 0.0144898 to 0.0144898
Heightened Def Con from 0.0144898 +to 0.0144898
Heightened Def Con from 0.014498 to 0.014498
Heightened Def Con from 0.014498 to 0.014498
Heightened Def Con from 0.014499 to 0.014499
Heightened Def Con from 0.0144995 to 0.0144995
Heightened Def Con from 0.0144995 to 0.0144995
Heightened Def Con from 0.0144995 to 0.0144995
Heightened Def Con from 0.0144995 to 0.0144995
Heightened Def Con from 0.0144995 +to 0.0144995
Heightened Def Con from 0.0144995 to 0.0144995
Heightened Def Con from 0.0144995 to 0.0144995
Heightened Def Con from 0.0144995 to 0.0144995
Heightened Def Con from 0.0144995 to 0.0144995
Heightened Def Con from 0.0144995 +to 0.0144995
Heightened Def Con from 0.0144995 to 0.0144995
Heightened Def Con from 0.0144999 +to 0.0144999
Heightened Def Con from 0.0144999 to 0.0144999
Heightened Def Con from 0.0145 to 0.0145
Heightened Def Con from 0.0145 to 0.0145
Heightened Def Con from 0.0145 to 0.0145
Heightened Def Con from 0.0145 ++to 0.0145
Heightened Def Con from 0.0145 to 0.0145
Heightened Def Con from 0.0149671 +to 0.0149671
Heightened Def Con from 0.0149995 to 0.0149995
Heightened Def Con from 0.0149995 to 0.0149995
Heightened Def Con from 0.0149995 to 0.0149995
Heightened Def Con from 0.0149998 to 0.0149998
Heightened Def Con from 0.0149998 to 0.0149998
Heightened Def Con from 0.0149998 to 0.0149998
Heightened Def Con from 0.0149998 to 0.0149998
Heightened Def Con from 0.0149998 to 0.0149998
Heightened Def Con from 0.0149999 to 0.0149999
Heightened Def Con from 0.0149999 to 0.0149999
Heightened Def Con from 0.0149999 to 0.0149999
Heightened Def Con from 0.0149999 to 0.0149999
Heightened Def Con from 0.0149999 to 0.0149999
Heightened Def Con from 0.0149999 to 0.0149999
Heightened Def Con from 0.0149999 to 0.0149999
Heightened Def Con from 0.0149999 to 0.0149999
Heightened Def Con from 0.0149999 to 0.0149999
Heightened Def Con from 0.0149999 to 0.0149999
Heightened Def Con from 0.015 to 0.015
Heightened Def Con from 0.015 to 0.015
Heightened Def Con from 0.015 to 0.015
Heightened Def Con from 0.015 to 0.015
Heightened Def Con from 0.015 to 0.015
Heightened Def Con from 0.0154742 to 0.0154742
Heightened Def Con from 0.0154742 +to 0.0154742
Heightened Def Con from 0.0154906 to 0.0154906
Heightened Def Con from 0.0154906 to 0.0154906
Heightened Def Con from 0.0154906 to 0.0154906
Heightened Def Con from 0.0154996 to 0.0154996
Heightened Def Con from 0.0154996 to 0.0154996
Heightened Def Con from 0.0154996 to 0.0154996
Heightened Def Con from 0.0154996 to 0.0154996
Heightened Def Con from 0.0154998 to 0.0154998
Heightened Def Con from 0.0154998 +to 0.0154999
Heightened Def Con from 0.0154999 to 0.0154999
Heightened Def Con from 0.0154999 to 0.0154999
Heightened Def Con from 0.0154999 to 0.0154999
Heightened Def Con from 0.0154999 to 0.0154999
Heightened Def Con from 0.0154999 +to 0.0154999
Heightened Def Con from 0.0154999 to 0.0154999
Heightened Def Con from 0.0154999 +to 0.0154999
Heightened Def Con from 0.0155 to 0.0155
Heightened Def Con from 0.0155 +to 0.0155
Heightened Def Con from 0.0155 to 0.0155
Heightened Def Con from 0.0155 to 0.0155
Heightened Def Con from 0.0155 to 0.0155
Heightened Def Con from 0.0155 +to 0.0155
Heightened Def Con from 0.0155 to 0.0155
Heightened Def Con from 0.0155 to 0.0155
Heightened Def Con from 0.0155 to 0.0155
Heightened Def Con from 0.0155 to 0.0155
Heightened Def Con from 0.0155 to 0.0155
Heightened Def Con from 0.0155 to 0.0155
Heightened Def Con from 0.0155 to 0.0155
Heightened Def Con from 0.0155 to 0.0155
Heightened Def Con from 0.0155021 to 0.0155021
Heightened Def Con from 0.015998 to 0.015998
Heightened Def Con from 0.015998 to 0.015998
Heightened Def Con from 0.015999 to 0.015999
Heightened Def Con from 0.015999 to 0.015999
Heightened Def Con from 0.015999 to 0.015999
Heightened Def Con from 0.015999 to 0.015999
Heightened Def Con from 0.015999 to 0.015999
Heightened Def Con from 0.0159998 to 0.0159998
Heightened Def Con from 0.0159999 to 0.0159999
Heightened Def Con from 0.0159999 to 0.0159999
Heightened Def Con from 0.016 to 0.016
Heightened Def Con from 0.016 to 0.016
Heightened Def Con from 0.016 to 0.016
Heightened Def Con from 0.016 to 0.016
Heightened Def Con from 0.016 to 0.016
Heightened Def Con from 0.016 to 0.016
Heightened Def Con from 0.016 to 0.016
Heightened Def Con from 0.016 to 0.016
Heightened Def Con from 0.016 to 0.016
Heightened Def Con from 0.016 to 0.016
Heightened Def Con from 0.016 to 0.016
Heightened Def Con from 0.016 to 0.016
Heightened Def Con from 0.0164414 +to 0.0164414
Heightened Def Con from 0.0164414 to 0.0164414
Heightened Def Con from 0.0164414 to 0.0164414
Heightened Def Con from 0.0164742 +to 0.0164742
Heightened Def Con from 0.0164906 to 0.0164906
Heightened Def Con from 0.0164906 to 0.0164906
Heightened Def Con from 0.0164906 to 0.0164906
Heightened Def Con from 0.0164906 ++++to 0.0164906
Heightened Def Con from 0.0164906 to 0.0164906
Heightened Def Con from 0.0164998 to 0.0164998
Heightened Def Con from 0.0164998 to 0.0164998
Heightened Def Con from 0.0164998 to 0.0164998
Heightened Def Con from 0.0164998 to 0.0164998
Heightened Def Con from 0.0164998 +to 0.0164998
Heightened Def Con from 0.0164998 to 0.0164998
Heightened Def Con from 0.0164998 to 0.0164998
Heightened Def Con from 0.0164998 to 0.0164998
Heightened Def Con from 0.0164998 to 0.0164998
Heightened Def Con from 0.0164998 to 0.0164998
Heightened Def Con from 0.0164998 to 0.0164998
Heightened Def Con from 0.0164998 to 0.0164998
Heightened Def Con from 0.0164998 to 0.0164998
Heightened Def Con from 0.0164998 to 0.0164998
Heightened Def Con from 0.0164998 to 0.0164998
Heightened Def Con from 0.0164998 to 0.0164998
Heightened Def Con from 0.0164999 to 0.0164999
Heightened Def Con from 0.0164999 to 0.0164999
Heightened Def Con from 0.0165 ++++to 0.0165
Heightened Def Con from 0.0165 to 0.0165
Heightened Def Con from 0.0165 to 0.0165
Heightened Def Con from 0.0165 ++to 0.0165
Heightened Def Con from 0.0165 to 0.0165
Heightened Def Con from 0.0165 to 0.0165
Heightened Def Con from 0.0165 to 0.0165
Heightened Def Con from 0.0165 to 0.0165
Heightened Def Con from 0.0169849 to 0.0169849
Heightened Def Con from 0.0169849 to 0.0169849
Heightened Def Con from 0.0169931 to 0.0169931
Heightened Def Con from 0.0169932 to 0.0169932
Heightened Def Con from 0.0169973 to 0.0169973
Heightened Def Con from 0.0169973 to 0.0169973
Heightened Def Con from 0.016999 to 0.016999
Heightened Def Con from 0.016999 to 0.016999
Heightened Def Con from 0.016999 to 0.016999
Heightened Def Con from 0.017 to 0.017
Heightened Def Con from 0.017 to 0.017
Heightened Def Con from 0.01747 to 0.01747
Heightened Def Con from 0.01747 to 0.01747
Heightened Def Con from 0.01747 to 0.01747
Heightened Def Con from 0.01747 to 0.01747
Heightened Def Con from 0.01747 to 0.01747
Heightened Def Con from 0.0174864 to 0.0174864
Heightened Def Con from 0.0174864 to 0.0174864
Heightened Def Con from 0.0174864 to 0.0174864
Heightened Def Con from 0.0174864 +to 0.0174864
Heightened Def Con from 0.0174864 to 0.0174864
Heightened Def Con from 0.0174864 ++to 0.0174864
Heightened Def Con from 0.0174946 ++to 0.0174946
Heightened Def Con from 0.017498 to 0.017498
Heightened Def Con from 0.017499 +to 0.017499
Heightened Def Con from 0.017499 +++to 0.017499
Heightened Def Con from 0.017499 to 0.017499
Heightened Def Con from 0.0174995 +to 0.0174995
Heightened Def Con from 0.0174995 to 0.0174995
Heightened Def Con from 0.0174995 to 0.0174995
Heightened Def Con from 0.0174995 to 0.0174995
Heightened Def Con from 0.0174995 +to 0.0174995
Heightened Def Con from 0.0174995 to 0.0174995
Heightened Def Con from 0.0174998 to 0.0174998
Heightened Def Con from 0.0174998 to 0.0174998
Heightened Def Con from 0.0174998 to 0.0174998
Heightened Def Con from 0.0174998 +to 0.0174998
Heightened Def Con from 0.0174998 to 0.0174998
Heightened Def Con from 0.0174998 +to 0.0174998
Heightened Def Con from 0.0174998 to 0.0174998
Heightened Def Con from 0.0174998 +to 0.0174998
Heightened Def Con from 0.0174998 to 0.0174998
Heightened Def Con from 0.0174998 to 0.0174998
Heightened Def Con from 0.0174998 to 0.0174998
Heightened Def Con from 0.0174998 to 0.0174998
Heightened Def Con from 0.0174998 to 0.0174998
Heightened Def Con from 0.0175 to 0.0175
Heightened Def Con from 0.0175 +to 0.0175
Heightened Def Con from 0.0175 to 0.0175
Heightened Def Con from 0.0175 to 0.0175
Heightened Def Con from 0.0175 to 0.0175
Heightened Def Con from 0.0175 to 0.0175
Heightened Def Con from 0.0175 to 0.0175
Heightened Def Con from 0.0175 +to 0.0175
Heightened Def Con from 0.0175 +to 0.0175
Heightened Def Con from 0.0175 to 0.0175
Heightened Def Con from 0.0175 to 0.0175
Heightened Def Con from 0.0175 +to 0.0175
Heightened Def Con from 0.0175 to 0.0175
Heightened Def Con from 0.0175 to 0.0175
Heightened Def Con from 0.0175 ++to 0.0175
Heightened Def Con from 0.0175 to 0.0175
Heightened Def Con from 0.0175 +to 0.0175
Heightened Def Con from 0.0179913 to 0.0179913
Heightened Def Con from 0.0179913 to 0.0179913
Heightened Def Con from 0.0179913 to 0.0179913
Heightened Def Con from 0.0179913 to 0.0179913
Heightened Def Con from 0.0179913 to 0.0179913
Heightened Def Con from 0.0179913 to 0.0179913
Heightened Def Con from 0.0179913 to 0.0179913
Heightened Def Con from 0.0179913 to 0.0179913
Heightened Def Con from 0.0179913 to 0.0179913
Heightened Def Con from 0.017998 to 0.017998
Heightened Def Con from 0.017999 to 0.017999
Heightened Def Con from 0.0179998 to 0.0179998
Heightened Def Con from 0.0179998 to 0.0179998
Heightened Def Con from 0.0179998 to 0.0179998
Heightened Def Con from 0.018 to 0.018
Heightened Def Con from 0.018 to 0.018
Heightened Def Con from 0.0184945 to 0.0184945
Heightened Def Con from 0.0184945 to 0.0184945
Heightened Def Con from 0.0184945 to 0.0184945
Heightened Def Con from 0.0184945 to 0.0184945
Heightened Def Con from 0.0184945 to 0.0184945
Heightened Def Con from 0.0184945 to 0.0184945
Heightened Def Con from 0.0184945 to 0.0184945
Heightened Def Con from 0.0184945 to 0.0184945
Heightened Def Con from 0.0184945 to 0.0184945
Heightened Def Con from 0.0184945 to 0.0184945
Heightened Def Con from 0.0184945 to 0.0184945
Heightened Def Con from 0.0184945 +to 0.0184945
Heightened Def Con from 0.018498 to 0.018498
Heightened Def Con from 0.018498 to 0.018498
Heightened Def Con from 0.018498 to 0.018498
Heightened Def Con from 0.018498 to 0.018498
Heightened Def Con from 0.018498 to 0.018498
Heightened Def Con from 0.018499 to 0.018499
Heightened Def Con from 0.018499 to 0.018499
Heightened Def Con from 0.018499 to 0.018499
Heightened Def Con from 0.018499 +++to 0.018499
Heightened Def Con from 0.018499 +to 0.018499
Heightened Def Con from 0.018499 to 0.018499
Heightened Def Con from 0.018499 to 0.018499
Heightened Def Con from 0.018499 to 0.018499
Heightened Def Con from 0.018499 +to 0.018499
Heightened Def Con from 0.018499 to 0.018499
Heightened Def Con from 0.018499 to 0.018499
Heightened Def Con from 0.018499 to 0.018499
Heightened Def Con from 0.018499 to 0.018499
Heightened Def Con from 0.018499 ++to 0.018499
Heightened Def Con from 0.018499 to 0.018499
Heightened Def Con from 0.018499 +to 0.018499
Heightened Def Con from 0.018499 to 0.018499
Heightened Def Con from 0.018499 to 0.018499
Heightened Def Con from 0.0184995 +to 0.0184995
Heightened Def Con from 0.0184995 to 0.0184995
Heightened Def Con from 0.0184995 ++to 0.0184995
Heightened Def Con from 0.0184995 to 0.0184995
Heightened Def Con from 0.0184995 to 0.0184995
Heightened Def Con from 0.0184995 to 0.0184995
Heightened Def Con from 0.0184998 +to 0.0184998
Heightened Def Con from 0.0184998 to 0.0184998
Heightened Def Con from 0.0184998 to 0.0184998
Heightened Def Con from 0.0184998 to 0.0184998
Heightened Def Con from 0.0185 +to 0.0185
Heightened Def Con from 0.0185 to 0.0185
Heightened Def Con from 0.0185 to 0.0185
Heightened Def Con from 0.0185 to 0.0185
Heightened Def Con from 0.0185 to 0.0185
Heightened Def Con from 0.0185 +to 0.0185
Heightened Def Con from 0.0185 to 0.0185
Heightened Def Con from 0.0185 to 0.0185
Heightened Def Con from 0.0185 to 0.0185
Heightened Def Con from 0.0185 to 0.0185
Heightened Def Con from 0.0185 to 0.0185
Heightened Def Con from 0.0185 ++to 0.0185
Heightened Def Con from 0.0185 to 0.0185
Heightened Def Con from 0.0189859 to 0.0189859
Heightened Def Con from 0.0189859 to 0.0189859
Heightened Def Con from 0.0189859 to 0.0189859
Heightened Def Con from 0.019 to 0.019
Heightened Def Con from 0.019481 to 0.019481
Heightened Def Con from 0.019481 +to 0.019481
Heightened Def Con from 0.019481 to 0.019481
Heightened Def Con from 0.019481 to 0.019481
Heightened Def Con from 0.019481 to 0.019481
Heightened Def Con from 0.019481 to 0.019481
Heightened Def Con from 0.019481 to 0.019481
Heightened Def Con from 0.019481 to 0.019481
Heightened Def Con from 0.019481 +to 0.019481
Heightened Def Con from 0.0194948 to 0.0194948
Heightened Def Con from 0.0194948 to 0.0194948
Heightened Def Con from 0.0194948 to 0.0194948
Heightened Def Con from 0.0194948 to 0.0194948
Heightened Def Con from 0.0194948 to 0.0194948
Heightened Def Con from 0.0194948 to 0.0194948
Heightened Def Con from 0.0194948 +to 0.0194948
Heightened Def Con from 0.0194948 to 0.0194948
Heightened Def Con from 0.0194948 to 0.0194948
Heightened Def Con from 0.0194948 to 0.0194948
Heightened Def Con from 0.0194948 to 0.0194948
Heightened Def Con from 0.0194948 to 0.0194948
Heightened Def Con from 0.0194948 to 0.0194948
Heightened Def Con from 0.0194948 to 0.0194948
Heightened Def Con from 0.0194948 to 0.0194948
Heightened Def Con from 0.0194948 to 0.0194948
Heightened Def Con from 0.0194948 to 0.0194948
Heightened Def Con from 0.0194949 ++to 0.0194949
Heightened Def Con from 0.019498 +to 0.019498
Heightened Def Con from 0.019498 to 0.019498
Heightened Def Con from 0.019498 to 0.019498
Heightened Def Con from 0.019498 to 0.019498
Heightened Def Con from 0.019498 to 0.019498
Heightened Def Con from 0.019498 to 0.019498
Heightened Def Con from 0.019498 to 0.019498
Heightened Def Con from 0.019498 to 0.019498
Heightened Def Con from 0.019498 to 0.019498
Heightened Def Con from 0.019498 to 0.019498
Heightened Def Con from 0.019498 to 0.019498
Heightened Def Con from 0.019498 to 0.019498
Heightened Def Con from 0.019498 ++to 0.019498
Heightened Def Con from 0.019499 +to 0.019499
Heightened Def Con from 0.019499 to 0.019499
Heightened Def Con from 0.019499 to 0.019499
Heightened Def Con from 0.019499 to 0.019499
Heightened Def Con from 0.019499 to 0.019499
Heightened Def Con from 0.0194995 to 0.0194995
Heightened Def Con from 0.0194998 to 0.0194998
Heightened Def Con from 0.0194998 ++to 0.0194998
Heightened Def Con from 0.0194999 to 0.0194999
Heightened Def Con from 0.0194999 to 0.0194999
Heightened Def Con from 0.0194999 to 0.0194999
Heightened Def Con from 0.0194999 ++to 0.0194999
Heightened Def Con from 0.0194999 to 0.0194999
Heightened Def Con from 0.0194999 to 0.0194999
Heightened Def Con from 0.0194999 to 0.0194999
Heightened Def Con from 0.0194999 +to 0.0194999
Heightened Def Con from 0.0194999 +to 0.0194999
Heightened Def Con from 0.0194999 +to 0.0194999
Heightened Def Con from 0.0194999 to 0.0194999
Heightened Def Con from 0.0194999 to 0.0194999
Heightened Def Con from 0.0194999 to 0.0194999
Heightened Def Con from 0.0194999 to 0.0194999
Heightened Def Con from 0.0194999 to 0.0194999
Heightened Def Con from 0.0194999 to 0.0194999
Heightened Def Con from 0.0194999 to 0.0194999
Heightened Def Con from 0.0195 to 0.0195
Heightened Def Con from 0.0195 ++to 0.0195
Heightened Def Con from 0.0195 +to 0.0195
Heightened Def Con from 0.0195 to 0.0195
Heightened Def Con from 0.0195 +to 0.0195
Heightened Def Con from 0.0195 +to 0.0195
Heightened Def Con from 0.0195 to 0.0195
Heightened Def Con from 0.0195 +to 0.0195
Heightened Def Con from 0.0199418 to 0.0199418
Heightened Def Con from 0.0199746 to 0.0199746
Heightened Def Con from 0.0199746 to 0.0199746
Heightened Def Con from 0.019991 to 0.019991
Heightened Def Con from 0.019991 to 0.019991
Heightened Def Con from 0.0199996 to 0.0199996
Heightened Def Con from 0.0199996 to 0.0199996
Heightened Def Con from 0.0199996 to 0.0199996
Heightened Def Con from 0.0199996 to 0.0199996
Heightened Def Con from 0.0199999 to 0.0199999
Heightened Def Con from 0.0199999 to 0.0199999
Heightened Def Con from 0.0199999 to 0.0199999
Heightened Def Con from 0.0199999 to 0.0199999
Heightened Def Con from 0.0199999 to 0.0199999
Heightened Def Con from 0.0199999 to 0.0199999
Heightened Def Con from 0.0199999 to 0.0199999
Heightened Def Con from 0.0199999 to 0.0199999
Heightened Def Con from 0.0199999 to 0.0199999
Heightened Def Con from 0.02 to 0.02
Heightened Def Con from 0.02 to 0.02
Heightened Def Con from 0.02 to 0.02
Heightened Def Con from 0.02 to 0.02
Heightened Def Con from 0.0204414 to 0.0204414
Heightened Def Con from 0.0204414 to 0.0204414
Heightened Def Con from 0.0204414 to 0.0204414
Heightened Def Con from 0.0204414 +to 0.0204414
Heightened Def Con from 0.0204414 to 0.0204414
Heightened Def Con from 0.0204414 to 0.0204414
Heightened Def Con from 0.0204414 to 0.0204414
Heightened Def Con from 0.0204414 to 0.0204414
Heightened Def Con from 0.0204414 to 0.0204414
Heightened Def Con from 0.0204742 to 0.0204742
Heightened Def Con from 0.0204742 to 0.0204742
Heightened Def Con from 0.0204742 to 0.0204742
Heightened Def Con from 0.0204995 to 0.0204995
Heightened Def Con from 0.0204995 to 0.0204995
Heightened Def Con from 0.0204995 to 0.0204995
Heightened Def Con from 0.0204995 ++to 0.0204995
Heightened Def Con from 0.0204995 to 0.0204995
Heightened Def Con from 0.0204995 to 0.0204995
Heightened Def Con from 0.0204995 to 0.0204995
Heightened Def Con from 0.0204995 to 0.0204995
Heightened Def Con from 0.0204998 to 0.0204998
Heightened Def Con from 0.0204998 to 0.0204998
Heightened Def Con from 0.0204998 to 0.0204998
Heightened Def Con from 0.0204998 +to 0.0204998
Heightened Def Con from 0.0204998 to 0.0204998
Heightened Def Con from 0.0204998 to 0.0204998
Heightened Def Con from 0.0204998 to 0.0204998
Heightened Def Con from 0.0204998 to 0.0204998
Heightened Def Con from 0.0204998 to 0.0204998
Heightened Def Con from 0.0204998 +to 0.0204998
Heightened Def Con from 0.0204998 +to 0.0204998
Heightened Def Con from 0.0204998 to 0.0204998
Heightened Def Con from 0.0204998 to 0.0204998
Heightened Def Con from 0.0204998 to 0.0204998
Heightened Def Con from 0.0204998 +to 0.0204998
Heightened Def Con from 0.0204998 to 0.0204998
Heightened Def Con from 0.0204998 to 0.0204998
Heightened Def Con from 0.0204998 +to 0.0204998
Heightened Def Con from 0.0204999 to 0.0204999
Heightened Def Con from 0.0204999 to 0.0204999
Heightened Def Con from 0.0205 to 0.0205
Heightened Def Con from 0.0205 to 0.0205
Heightened Def Con from 0.0205 to 0.0205
Heightened Def Con from 0.0205 to 0.0205
Heightened Def Con from 0.0205 +to 0.0205
Heightened Def Con from 0.0205 to 0.0205
Heightened Def Con from 0.0205 ++to 0.0205
Heightened Def Con from 0.0205 to 0.0205
Heightened Def Con from 0.0205 +++to 0.0205
Heightened Def Con from 0.0205 to 0.0205
Heightened Def Con from 0.0209635 to 0.0209635
Heightened Def Con from 0.0209984 to 0.0209984
Heightened Def Con from 0.0209999 to 0.0209999
Heightened Def Con from 0.021 to 0.021
Heightened Def Con from 0.021 to 0.021
Heightened Def Con from 0.0214755 +to 0.0214755
Heightened Def Con from 0.0214755 to 0.0214755
Heightened Def Con from 0.0214755 +to 0.0214755
Heightened Def Con from 0.0214918 to 0.0214918
Heightened Def Con from 0.0214918 to 0.0214918
Heightened Def Con from 0.0214918 to 0.0214918
Heightened Def Con from 0.0214918 to 0.0214918
Heightened Def Con from 0.0214919 +to 0.0214919
Heightened Def Con from 0.0214919 to 0.0214919
Heightened Def Con from 0.0214919 +to 0.0214919
Heightened Def Con from 0.0214919 +to 0.0214919
Heightened Def Con from 0.021498 +++to 0.021498
Heightened Def Con from 0.021498 to 0.021498
Heightened Def Con from 0.021498 to 0.021498
Heightened Def Con from 0.021498 to 0.021498
Heightened Def Con from 0.021498 to 0.021498
Heightened Def Con from 0.021499 to 0.021499
Heightened Def Con from 0.021499 to 0.021499
Heightened Def Con from 0.021499 to 0.021499
Heightened Def Con from 0.021499 to 0.021499
Heightened Def Con from 0.021499 +to 0.021499
Heightened Def Con from 0.0214991 to 0.0214991
Heightened Def Con from 0.0214991 to 0.0214991
Heightened Def Con from 0.0214991 to 0.0214991
Heightened Def Con from 0.0214991 to 0.0214991
Heightened Def Con from 0.0214991 ++to 0.0214991
Heightened Def Con from 0.0214991 +to 0.0214991
Heightened Def Con from 0.0214991 to 0.0214991
Heightened Def Con from 0.0214991 to 0.0214991
Heightened Def Con from 0.0214991 to 0.0214991
Heightened Def Con from 0.0214996 to 0.0214996
Heightened Def Con from 0.0214996 to 0.0214996
Heightened Def Con from 0.0214996 to 0.0214996
Heightened Def Con from 0.0214996 to 0.0214996
Heightened Def Con from 0.0214996 +to 0.0214996
Heightened Def Con from 0.0214996 to 0.0214996
Heightened Def Con from 0.0214996 to 0.0214996
Heightened Def Con from 0.0214996 to 0.0214996
Heightened Def Con from 0.0214996 to 0.0214996
Heightened Def Con from 0.0214996 to 0.0214996
Heightened Def Con from 0.0215 to 0.0215
Heightened Def Con from 0.0215 to 0.0215
Heightened Def Con from 0.0215 +to 0.0215
Heightened Def Con from 0.0215 +to 0.0215
Heightened Def Con from 0.0215 +to 0.0215
Heightened Def Con from 0.0215 to 0.0215
Heightened Def Con from 0.0215 to 0.0215
Heightened Def Con from 0.0215 to 0.0215
Heightened Def Con from 0.0215 +to 0.0215
Heightened Def Con from 0.0215 to 0.0215
Heightened Def Con from 0.0215 to 0.0215
Heightened Def Con from 0.0215 +to 0.0215
Heightened Def Con from 0.0215 to 0.0215
Heightened Def Con from 0.0215 +to 0.0215
Heightened Def Con from 0.0219617 to 0.0219617
Heightened Def Con from 0.0219617 to 0.0219617
Heightened Def Con from 0.0219617 to 0.0219617
Heightened Def Con from 0.0219617 to 0.0219617
Heightened Def Con from 0.0219976 to 0.0219976
Heightened Def Con from 0.0219998 to 0.0219998
Heightened Def Con from 0.0219998 to 0.0219998
Heightened Def Con from 0.0219998 to 0.0219998
Heightened Def Con from 0.0219999 to 0.0219999
Heightened Def Con from 0.0219999 to 0.0219999
Heightened Def Con from 0.0219999 to 0.0219999
Heightened Def Con from 0.0219999 to 0.0219999
Heightened Def Con from 0.0219999 to 0.0219999
Heightened Def Con from 0.0219999 to 0.0219999
Heightened Def Con from 0.022 to 0.022
Heightened Def Con from 0.022 to 0.022
Heightened Def Con from 0.022 to 0.022
Heightened Def Con from 0.022 to 0.022
Heightened Def Con from 0.022 to 0.022
Heightened Def Con from 0.022 to 0.022
Heightened Def Con from 0.0224742 to 0.0224742
Heightened Def Con from 0.0224742 +to 0.0224742
Heightened Def Con from 0.0224742 to 0.0224742
Heightened Def Con from 0.0224742 to 0.0224742
Heightened Def Con from 0.0224742 to 0.0224742
Heightened Def Con from 0.0224742 +to 0.0224742
Heightened Def Con from 0.0224896 to 0.0224896
Heightened Def Con from 0.0224896 to 0.0224896
Heightened Def Con from 0.0224896 to 0.0224896
Heightened Def Con from 0.0224896 to 0.0224896
Heightened Def Con from 0.0224896 +to 0.0224896
Heightened Def Con from 0.0224959 to 0.0224959
Heightened Def Con from 0.0224959 to 0.0224959
Heightened Def Con from 0.0224959 to 0.0224959
Heightened Def Con from 0.0224959 to 0.0224959
Heightened Def Con from 0.0224959 ++++to 0.0224959
Heightened Def Con from 0.022499 to 0.022499
Heightened Def Con from 0.022499 to 0.022499
Heightened Def Con from 0.0224995 to 0.0224995
Heightened Def Con from 0.0224998 to 0.0224998
Heightened Def Con from 0.0224998 to 0.0224998
Heightened Def Con from 0.0224998 to 0.0224998
Heightened Def Con from 0.0224998 to 0.0224998
Heightened Def Con from 0.0224998 to 0.0224998
Heightened Def Con from 0.0224998 to 0.0224998
Heightened Def Con from 0.0224999 to 0.0224999
Heightened Def Con from 0.0224999 to 0.0224999
Heightened Def Con from 0.0224999 to 0.0224999
Heightened Def Con from 0.0224999 to 0.0224999
Heightened Def Con from 0.0224999 to 0.0224999
Heightened Def Con from 0.0224999 to 0.0224999
Heightened Def Con from 0.0224999 to 0.0224999
Heightened Def Con from 0.0224999 to 0.0224999
Heightened Def Con from 0.0224999 to 0.0224999
Heightened Def Con from 0.0224999 to 0.0224999
Heightened Def Con from 0.0224999 ++to 0.0224999
Heightened Def Con from 0.0224999 to 0.0224999
Heightened Def Con from 0.0224999 +to 0.0224999
Heightened Def Con from 0.0224999 +to 0.0224999
Heightened Def Con from 0.0225 +to 0.0225
Heightened Def Con from 0.0225 to 0.0225
Heightened Def Con from 0.0225 to 0.0225
Heightened Def Con from 0.0225 ++to 0.0225
Heightened Def Con from 0.0229883 to 0.0229883
Heightened Def Con from 0.022998 to 0.022998
Heightened Def Con from 0.022998 to 0.022998
Heightened Def Con from 0.022998 to 0.022998
Heightened Def Con from 0.022998 to 0.022998
Heightened Def Con from 0.022998 to 0.022998
Heightened Def Con from 0.022998 to 0.022998
Heightened Def Con from 0.022998 to 0.022998
Heightened Def Con from 0.022998 to 0.022998
Heightened Def Con from 0.022998 to 0.022998
Heightened Def Con from 0.022998 to 0.022998
Heightened Def Con from 0.022998 to 0.022998
Heightened Def Con from 0.022998 to 0.022998
Heightened Def Con from 0.022999 to 0.022999
Heightened Def Con from 0.022999 to 0.022999
Heightened Def Con from 0.0229995 to 0.0229995
Heightened Def Con from 0.0229995 to 0.0229995
Heightened Def Con from 0.0229995 to 0.0229995
Heightened Def Con from 0.0229995 to 0.0229995
Heightened Def Con from 0.023 to 0.023
Heightened Def Con from 0.023 to 0.023
Heightened Def Con from 0.023 to 0.023
Heightened Def Con from 0.0234641 +to 0.0234641
Heightened Def Con from 0.0234641 to 0.0234641
Heightened Def Con from 0.0234641 to 0.0234641
Heightened Def Con from 0.0234641 to 0.0234641
Heightened Def Con from 0.0234641 to 0.0234641
Heightened Def Con from 0.0234641 to 0.0234641
Heightened Def Con from 0.0234641 to 0.0234641
Heightened Def Con from 0.0234641 to 0.0234641
Heightened Def Con from 0.0234641 to 0.0234641
Heightened Def Con from 0.0234899 to 0.0234899
Heightened Def Con from 0.0234899 to 0.0234899
Heightened Def Con from 0.0234899 to 0.0234899
Heightened Def Con from 0.0234899 to 0.0234899
Heightened Def Con from 0.0234899 to 0.0234899
Heightened Def Con from 0.0234899 to 0.0234899
Heightened Def Con from 0.0234899 to 0.02349
Heightened Def Con from 0.0234985 to 0.0234985
Heightened Def Con from 0.0234985 +to 0.0234985
Heightened Def Con from 0.0234995 to 0.0234995
Heightened Def Con from 0.0234995 to 0.0234995
Heightened Def Con from 0.0234997 to 0.0234997
Heightened Def Con from 0.0234997 to 0.0234998
Heightened Def Con from 0.0234999 to 0.0234999
Heightened Def Con from 0.0234999 to 0.0234999
Heightened Def Con from 0.0234999 to 0.0234999
Heightened Def Con from 0.0234999 to 0.0234999
Heightened Def Con from 0.0234999 to 0.0234999
Heightened Def Con from 0.0234999 +to 0.0234999
Heightened Def Con from 0.0234999 +to 0.0234999
Heightened Def Con from 0.0234999 to 0.0234999
Heightened Def Con from 0.0234999 to 0.0234999
Heightened Def Con from 0.0234999 +++to 0.0234999
Heightened Def Con from 0.0234999 +to 0.0235
Heightened Def Con from 0.0235 +to 0.0235
Heightened Def Con from 0.0235 +to 0.0235
Heightened Def Con from 0.0235 to 0.0235
Heightened Def Con from 0.0235 to 0.0235
Heightened Def Con from 0.0235 to 0.0235
Heightened Def Con from 0.0235 to 0.0235
Heightened Def Con from 0.0235 to 0.0235
Heightened Def Con from 0.0235 +to 0.0235
Heightened Def Con from 0.0235 to 0.0235
Heightened Def Con from 0.0235 to 0.0235
Heightened Def Con from 0.0239414 to 0.0239414
Heightened Def Con from 0.0239906 to 0.0239906
Heightened Def Con from 0.0239906 to 0.0239906
Heightened Def Con from 0.0239995 to 0.0239995
Heightened Def Con from 0.0239995 to 0.0239995
Heightened Def Con from 0.0239995 to 0.0239995
Heightened Def Con from 0.0239998 to 0.0239998
Heightened Def Con from 0.0239998 to 0.0239998
Heightened Def Con from 0.0239998 to 0.0239998
Heightened Def Con from 0.0239998 to 0.0239998
Heightened Def Con from 0.0239998 to 0.0239998
Heightened Def Con from 0.0239998 to 0.0239998
Heightened Def Con from 0.0239999 to 0.0239999
Heightened Def Con from 0.0239999 to 0.0239999
Heightened Def Con from 0.024 to 0.024
Heightened Def Con from 0.024 to 0.024
Heightened Def Con from 0.024 to 0.024
Heightened Def Con from 0.024 to 0.024
Heightened Def Con from 0.024 to 0.024
Heightened Def Con from 0.024 to 0.024
Heightened Def Con from 0.024 to 0.024
Heightened Def Con from 0.0244742 to 0.0244742
Heightened Def Con from 0.0244742 ++to 0.0244742
Heightened Def Con from 0.0244906 +to 0.0244906
Heightened Def Con from 0.0244906 to 0.0244906
Heightened Def Con from 0.0244975 to 0.0244975
Heightened Def Con from 0.0244975 to 0.0244975
Heightened Def Con from 0.0244996 to 0.0244996
Heightened Def Con from 0.0244996 to 0.0244996
Heightened Def Con from 0.0244996 +++to 0.0244996
Heightened Def Con from 0.0244996 ++to 0.0244996
Heightened Def Con from 0.0244996 to 0.0244996
Heightened Def Con from 0.0244996 +to 0.0244996
Heightened Def Con from 0.0244996 to 0.0244996
Heightened Def Con from 0.0244996 to 0.0244996
Heightened Def Con from 0.0244999 to 0.0244999
Heightened Def Con from 0.0244999 to 0.0244999
Heightened Def Con from 0.0244999 to 0.0244999
Heightened Def Con from 0.0244999 +to 0.0244999
Heightened Def Con from 0.0244999 to 0.0244999
Heightened Def Con from 0.0244999 to 0.0244999
Heightened Def Con from 0.0244999 +to 0.0244999
Heightened Def Con from 0.0244999 to 0.0244999
Heightened Def Con from 0.0244999 to 0.0244999
Heightened Def Con from 0.0244999 to 0.0244999
Heightened Def Con from 0.0244999 to 0.0244999
Heightened Def Con from 0.0244999 to 0.0245
Heightened Def Con from 0.0245 ++to 0.0245
Heightened Def Con from 0.0245 +to 0.0245
Heightened Def Con from 0.0245 to 0.0245
Heightened Def Con from 0.0245 +to 0.0245
Heightened Def Con from 0.0245 to 0.0245
Heightened Def Con from 0.0245 to 0.0245
Heightened Def Con from 0.0245 to 0.0245
Heightened Def Con from 0.0245 to 0.0245
Heightened Def Con from 0.0245 +to 0.0245
Heightened Def Con from 0.0245 to 0.0245
Heightened Def Con from 0.0245 +to 0.0245
Heightened Def Con from 0.0245 to 0.0245
Heightened Def Con from 0.0245 +to 0.0245
Heightened Def Con from 0.0245 to 0.0245
Heightened Def Con from 0.0245 to 0.0245
Heightened Def Con from 0.0245 to 0.0245
Heightened Def Con from 0.0249996 to 0.0249996
Heightened Def Con from 0.0249999 to 0.0249999
Heightened Def Con from 0.025 to 0.025
Heightened Def Con from 0.025 to 0.025
Heightened Def Con from 0.025 to 0.025
Heightened Def Con from 0.025 to 0.025
Heightened Def Con from 0.025 to 0.025
Heightened Def Con from 0.025 to 0.025
Heightened Def Con from 0.0254809 ++to 0.0254809
Heightened Def Con from 0.0254809 to 0.0254809
Heightened Def Con from 0.0254809 to 0.0254809
Heightened Def Con from 0.0254809 +to 0.0254809
Heightened Def Con from 0.025498 to 0.025498
Heightened Def Con from 0.025498 to 0.025498
Heightened Def Con from 0.025498 to 0.025498
Heightened Def Con from 0.025498 +to 0.025498
Heightened Def Con from 0.025498 to 0.025498
Heightened Def Con from 0.025498 to 0.025498
Heightened Def Con from 0.025498 +to 0.025498
Heightened Def Con from 0.025499 to 0.025499
Heightened Def Con from 0.0254995 to 0.0254995
Heightened Def Con from 0.0254995 +to 0.0254995
Heightened Def Con from 0.0254995 +to 0.0254995
Heightened Def Con from 0.0254995 to 0.0254995
Heightened Def Con from 0.0254995 to 0.0254995
Heightened Def Con from 0.0254995 to 0.0254995
Heightened Def Con from 0.0254995 to 0.0254995
Heightened Def Con from 0.0254995 to 0.0254995
Heightened Def Con from 0.0254995 +to 0.0254995
Heightened Def Con from 0.0254995 +to 0.0254995
Heightened Def Con from 0.0254995 to 0.0254995
Heightened Def Con from 0.0254995 to 0.0254995
Heightened Def Con from 0.0254995 to 0.0254995
Heightened Def Con from 0.0254995 to 0.0254995
Heightened Def Con from 0.0254995 +++to 0.0254995
Heightened Def Con from 0.0254995 to 0.0254995
Heightened Def Con from 0.0254995 to 0.0254995
Heightened Def Con from 0.0254995 to 0.0254995
Heightened Def Con from 0.0254995 to 0.0254995
Heightened Def Con from 0.0254995 to 0.0254995
Heightened Def Con from 0.0254995 +to 0.0254995
Heightened Def Con from 0.0254995 to 0.0254995
Heightened Def Con from 0.0254995 to 0.0254995
Heightened Def Con from 0.0254995 to 0.0254995
Heightened Def Con from 0.0254996 +to 0.0254996
Heightened Def Con from 0.0254996 to 0.0254996
Heightened Def Con from 0.0254998 to 0.0254998
Heightened Def Con from 0.0254998 +to 0.0254998
Heightened Def Con from 0.0254998 to 0.0254998
Heightened Def Con from 0.0254998 to 0.0254998
Heightened Def Con from 0.0254998 to 0.0254998
Heightened Def Con from 0.0254998 to 0.0254998
Heightened Def Con from 0.0254999 to 0.0254999
Heightened Def Con from 0.0254999 +to 0.0254999
Heightened Def Con from 0.0255 to 0.0255
Heightened Def Con from 0.0255 +to 0.0255
Heightened Def Con from 0.0255 +to 0.0255
Heightened Def Con from 0.0255 +to 0.0255
Heightened Def Con from 0.0255 ++to 0.0255
Heightened Def Con from 0.0255 to 0.0255
Heightened Def Con from 0.0255 to 0.0255
Heightened Def Con from 0.0255 to 0.0255
Heightened Def Con from 0.0255 to 0.0255
Heightened Def Con from 0.0255 to 0.0255
Heightened Def Con from 0.0255 +to 0.0255
Heightened Def Con from 0.0255 +to 0.0255
Heightened Def Con from 0.0255 to 0.0255
Heightened Def Con from 0.0255 to 0.0255
Heightened Def Con from 0.0255 +to 0.0255
Heightened Def Con from 0.0259637 to 0.0259637
Heightened Def Con from 0.0259906 to 0.0259906
Heightened Def Con from 0.0259906 to 0.0259906
Heightened Def Con from 0.0259906 to 0.0259906
Heightened Def Con from 0.0259906 to 0.0259906
Heightened Def Con from 0.0259906 to 0.0259906
Heightened Def Con from 0.0259906 to 0.0259906
Heightened Def Con from 0.0259906 to 0.0259906
Heightened Def Con from 0.0259996 +to 0.0259996
Heightened Def Con from 0.0259997 to 0.0259997
Heightened Def Con from 0.0259997 to 0.0259997
Heightened Def Con from 0.026 to 0.026
Heightened Def Con from 0.026 to 0.026
Heightened Def Con from 0.026 to 0.026
Heightened Def Con from 0.0264959 to 0.0264959
Heightened Def Con from 0.0264959 to 0.0264959
Heightened Def Con from 0.0264959 +to 0.0264959
Heightened Def Con from 0.0264959 to 0.0264959
Heightened Def Con from 0.0264959 +to 0.0264959
Heightened Def Con from 0.0264959 ++to 0.0264959
Heightened Def Con from 0.026498 to 0.026498
Heightened Def Con from 0.026498 to 0.026498
Heightened Def Con from 0.026498 +to 0.026498
Heightened Def Con from 0.026498 to 0.026498
Heightened Def Con from 0.026499 to 0.026499
Heightened Def Con from 0.026499 to 0.026499
Heightened Def Con from 0.026499 ++to 0.026499
Heightened Def Con from 0.026499 to 0.026499
Heightened Def Con from 0.026499 to 0.026499
Heightened Def Con from 0.026499 to 0.026499
Heightened Def Con from 0.026499 to 0.026499
Heightened Def Con from 0.026499 +to 0.026499
Heightened Def Con from 0.026499 to 0.026499
Heightened Def Con from 0.026499 to 0.026499
Heightened Def Con from 0.026499 to 0.026499
Heightened Def Con from 0.026499 to 0.026499
Heightened Def Con from 0.026499 +to 0.026499
Heightened Def Con from 0.026499 ++to 0.026499
Heightened Def Con from 0.026499 to 0.026499
Heightened Def Con from 0.026499 +to 0.026499
Heightened Def Con from 0.026499 to 0.026499
Heightened Def Con from 0.026499 to 0.026499
Heightened Def Con from 0.026499 to 0.026499
Heightened Def Con from 0.0264996 to 0.0264996
Heightened Def Con from 0.0264996 to 0.0264996
Heightened Def Con from 0.0264996 to 0.0264996
Heightened Def Con from 0.0264996 to 0.0264996
Heightened Def Con from 0.0264996 to 0.0264996
Heightened Def Con from 0.0264996 to 0.0264996
Heightened Def Con from 0.0264996 +to 0.0264996
Heightened Def Con from 0.0264996 to 0.0264996
Heightened Def Con from 0.0264996 to 0.0264996
Heightened Def Con from 0.0264996 to 0.0264996
Heightened Def Con from 0.0264996 to 0.0264996
Heightened Def Con from 0.0264996 to 0.0264996
Heightened Def Con from 0.0264996 to 0.0264996
Heightened Def Con from 0.0264996 to 0.0264996
Heightened Def Con from 0.0264996 to 0.0264996
Heightened Def Con from 0.0264996 to 0.0264996
Heightened Def Con from 0.0264996 to 0.0264996
Heightened Def Con from 0.0264996 to 0.0264996
Heightened Def Con from 0.0264996 +to 0.0264996
Heightened Def Con from 0.0264996 to 0.0264996
Heightened Def Con from 0.0264996 to 0.0264996
Heightened Def Con from 0.0264996 to 0.0264996
Heightened Def Con from 0.0264996 to 0.0264996
Heightened Def Con from 0.0264996 to 0.0264996
Heightened Def Con from 0.0264996 to 0.0264996
Heightened Def Con from 0.0264996 +to 0.0264996
Heightened Def Con from 0.0264996 +to 0.0264996
Heightened Def Con from 0.0264996 to 0.0264996
Heightened Def Con from 0.0264996 to 0.0264996
Heightened Def Con from 0.0265 to 0.0265
Heightened Def Con from 0.0265 to 0.0265
Heightened Def Con from 0.0265 to 0.0265
Heightened Def Con from 0.0265 to 0.0265
Heightened Def Con from 0.0265 +to 0.0265
Heightened Def Con from 0.0265 to 0.0265
Heightened Def Con from 0.0265 to 0.0265
Heightened Def Con from 0.0265 +to 0.0265
Heightened Def Con from 0.0265 to 0.0265
Heightened Def Con from 0.0265 to 0.0265
Heightened Def Con from 0.0265 to 0.0265
Heightened Def Con from 0.0265 to 0.0265
Heightened Def Con from 0.0265 to 0.0265
Heightened Def Con from 0.0265 to 0.0265
Heightened Def Con from 0.0269414 to 0.0269414
Heightened Def Con from 0.0269906 to 0.0269906
Heightened Def Con from 0.0269906 to 0.0269906
Heightened Def Con from 0.0269906 to 0.0269906
Heightened Def Con from 0.0269976 to 0.0269976
Heightened Def Con from 0.027 to 0.027
Heightened Def Con from 0.027 to 0.027
Heightened Def Con from 0.027 to 0.027
Heightened Def Con from 0.027 to 0.027
Heightened Def Con from 0.027 to 0.027
Heightened Def Con from 0.027 to 0.027
Heightened Def Con from 0.027 to 0.027
Heightened Def Con from 0.0274802 to 0.0274802
Heightened Def Con from 0.0274802 to 0.0274802
Heightened Def Con from 0.0274802 +to 0.0274802
Heightened Def Con from 0.0274991 to 0.0274991
Heightened Def Con from 0.0274991 to 0.0274991
Heightened Def Con from 0.0274991 to 0.0274991
Heightened Def Con from 0.0274991 to 0.0274991
Heightened Def Con from 0.0274991 to 0.0274991
Heightened Def Con from 0.0274991 to 0.0274991
Heightened Def Con from 0.0274991 to 0.0274991
Heightened Def Con from 0.0274991 to 0.0274991
Heightened Def Con from 0.0274997 to 0.0274997
Heightened Def Con from 0.0274997 +to 0.0274997
Heightened Def Con from 0.0274997 to 0.0274997
Heightened Def Con from 0.0274997 ++to 0.0274997
Heightened Def Con from 0.0274997 to 0.0274997
Heightened Def Con from 0.0274997 to 0.0274997
Heightened Def Con from 0.0274997 to 0.0274997
Heightened Def Con from 0.0274997 ++to 0.0274997
Heightened Def Con from 0.0274997 +to 0.0274997
Heightened Def Con from 0.0274997 to 0.0274997
Heightened Def Con from 0.0274999 to 0.0274999
Heightened Def Con from 0.0275 to 0.0275
Heightened Def Con from 0.0275 +to 0.0275
Heightened Def Con from 0.0275 to 0.0275
Heightened Def Con from 0.0279832 to 0.0279832
Heightened Def Con from 0.0279832 to 0.0279832
Heightened Def Con from 0.0279995 to 0.0279995
Heightened Def Con from 0.0279995 to 0.0279995
Heightened Def Con from 0.0279995 to 0.0279995
Heightened Def Con from 0.0279995 to 0.0279995
Heightened Def Con from 0.0279998 to 0.0279998
Heightened Def Con from 0.0279998 to 0.0279998
Heightened Def Con from 0.028 to 0.028
Heightened Def Con from 0.028 to 0.028
Heightened Def Con from 0.028 to 0.028
Heightened Def Con from 0.0284414 to 0.0284414
Heightened Def Con from 0.0284742 to 0.0284742
Heightened Def Con from 0.0284742 ++to 0.0284742
Heightened Def Con from 0.0284742 to 0.0284742
Heightened Def Con from 0.0284742 to 0.0284742
Heightened Def Con from 0.0284742 ++++++to 0.0284742
Heightened Def Con from 0.0284742 +to 0.0284742
Heightened Def Con from 0.0284742 +to 0.0284742
[...]
Heightened Def Con from 0.0524998 to 0.0524998
Heightened Def Con from 0.0524998 to 0.0524998
Heightened Def Con from 0.0524998 to 0.0524998
Heightened Def Con from 0.0524998 to 0.0524998
Heightened Def Con from 0.0524998 to 0.0524998
Heightened Def Con from 0.0524998 to 0.0524998
Heightened Def Con from 0.0524998 to 0.0524998
Heightened Def Con from 0.0525 to 0.0525
Heightened Def Con from 0.0525 to 0.0525
Heightened Def Con from 0.0525 +to 0.0525
Heightened Def Con from 0.0525 to 0.0525
Heightened Def Con from 0.0525 to 0.0525
Heightened Def Con from 0.0525 to 0.0525
Heightened Def Con from 0.0525 to 0.0525
Heightened Def Con from 0.0525 to 0.0525
Heightened Def Con from 0.0525 to 0.0525
Heightened Def Con from 0.0525 to 0.0525
Heightened Def Con from 0.0525 ++++to 0.0525
Heightened Def Con from 0.0525 to 0.0525
Heightened Def Con from 0.0529906 to 0.0529906
Heightened Def Con from 0.0529999 to 0.0529999
Heightened Def Con from 0.0529999 to 0.0529999
Heightened Def Con from 0.0529999 to 0.0529999
Heightened Def Con from 0.0529999 to 0.0529999
Heightened Def Con from 0.053 to 0.053
Heightened Def Con from 0.053 to 0.053
Heightened Def Con from 0.053 to 0.053
Heightened Def Con from 0.0534414 to 0.0534414
Heightened Def Con from 0.0534414 to 0.0534414
Heightened Def Con from 0.0534414 ++to 0.0534414
Heightened Def Con from 0.0534414 to 0.0534414
Heightened Def Con from 0.0534414 +to 0.0534414
Heightened Def Con from 0.0534414 to 0.0534414
Heightened Def Con from 0.0534414 +to 0.0534414
Heightened Def Con from 0.0534742 to 0.0534742
Heightened Def Con from 0.0534975 to 0.0534975
Heightened Def Con from 0.0534975 +to 0.0534975
Heightened Def Con from 0.0534995 to 0.0534995
Heightened Def Con from 0.0534995 to 0.0534995
Heightened Def Con from 0.0534999 to 0.0534999
Heightened Def Con from 0.0534999 to 0.0534999
Heightened Def Con from 0.0534999 to 0.0534999
Heightened Def Con from 0.0534999 +to 0.0534999
Heightened Def Con from 0.0534999 to 0.0534999
Heightened Def Con from 0.0534999 +to 0.0534999
Heightened Def Con from 0.0534999 to 0.0534999
Heightened Def Con from 0.0535 to 0.0535
Heightened Def Con from 0.0535 +to 0.0535
Heightened Def Con from 0.0535 to 0.0535
Heightened Def Con from 0.0535 to 0.0535
Heightened Def Con from 0.0535 to 0.0535
Heightened Def Con from 0.0535 to 0.0535
Heightened Def Con from 0.0535 to 0.0535
Heightened Def Con from 0.0535 to 0.0535
Heightened Def Con from 0.0535 to 0.0535
Heightened Def Con from 0.0535 to 0.0535
Heightened Def Con from 0.0535 to 0.0535
Heightened Def Con from 0.0535 to 0.0535
Heightened Def Con from 0.0535 to 0.0535
Heightened Def Con from 0.0539998 to 0.0539998
Heightened Def Con from 0.0539998 to 0.0539998
Heightened Def Con from 0.0539998 to 0.0539998
Heightened Def Con from 0.0539998 to 0.0539998
Heightened Def Con from 0.0539998 to 0.0539998
Heightened Def Con from 0.0539998 to 0.0539998
Heightened Def Con from 0.0539998 to 0.0539998
Heightened Def Con from 0.0539998 to 0.0539998
Heightened Def Con from 0.0539998 to 0.0539998
Heightened Def Con from 0.0539998 to 0.0539998
Heightened Def Con from 0.0539998 to 0.0539998
Heightened Def Con from 0.0539998 to 0.0539998
Heightened Def Con from 0.0539998 to 0.0539998
Heightened Def Con from 0.054 to 0.054
Heightened Def Con from 0.054 to 0.054
Heightened Def Con from 0.0544414 to 0.0544414
Heightened Def Con from 0.0544414 to 0.0544414
Heightened Def Con from 0.0544414 +++to 0.0544414
Heightened Def Con from 0.0544414 to 0.0544414
Heightened Def Con from 0.0544414 to 0.0544414
Heightened Def Con from 0.0544742 to 0.0544742
Heightened Def Con from 0.0544742 to 0.0544742
Heightened Def Con from 0.0544742 +to 0.0544742
Heightened Def Con from 0.0544742 to 0.0544742
Heightened Def Con from 0.0544742 to 0.0544742
Heightened Def Con from 0.0544742 to 0.0544742
Heightened Def Con from 0.0544742 to 0.0544742
Heightened Def Con from 0.0544742 +to 0.0544742
Heightened Def Con from 0.0544742 ++to 0.0544742
Heightened Def Con from 0.0544742 to 0.0544742
Heightened Def Con from 0.0544742 to 0.0544742
Heightened Def Con from 0.0544742 to 0.0544742
Heightened Def Con from 0.0544742 +to 0.0544742
Heightened Def Con from 0.0544906 to 0.0544906
Heightened Def Con from 0.0544906 to 0.0544906
Heightened Def Con from 0.0544906 to 0.0544906
Heightened Def Con from 0.0544906 to 0.0544906
Heightened Def Con from 0.0544906 to 0.0544906
Heightened Def Con from 0.0544906 ++to 0.0544906
Heightened Def Con from 0.0544906 to 0.0544906
Heightened Def Con from 0.0544906 +to 0.0544906
Heightened Def Con from 0.0544906 to 0.0544906
Heightened Def Con from 0.0544906 +to 0.0544906
Heightened Def Con from 0.0544906 to 0.0544906
Heightened Def Con from 0.0544906 to 0.0544906
Heightened Def Con from 0.0544906 to 0.0544906
Heightened Def Con from 0.0544906 +to 0.0544906
Heightened Def Con from 0.0544976 to 0.0544976
Heightened Def Con from 0.0544999 to 0.0544999
Heightened Def Con from 0.0544999 to 0.0544999
Heightened Def Con from 0.0544999 to 0.0544999
Heightened Def Con from 0.0544999 to 0.0544999
Heightened Def Con from 0.0544999 to 0.0544999
Heightened Def Con from 0.0544999 to 0.0544999
Heightened Def Con from 0.0544999 to 0.0544999
Heightened Def Con from 0.0544999 to 0.0544999
Heightened Def Con from 0.0545 to 0.0545
Heightened Def Con from 0.0545 +to 0.0545
Heightened Def Con from 0.0545 +to 0.0545
Heightened Def Con from 0.0545 to 0.0545
Heightened Def Con from 0.0545 to 0.0545
Heightened Def Con from 0.0545 to 0.0545
Heightened Def Con from 0.0545 to 0.0545
Heightened Def Con from 0.0545 to 0.0545
Heightened Def Con from 0.0545 to 0.0545
Heightened Def Con from 0.0545 to 0.0545
Heightened Def Con from 0.0549918 to 0.0549918
Heightened Def Con from 0.055 to 0.055
Heightened Def Con from 0.055 to 0.055
Heightened Def Con from 0.055 to 0.055
Heightened Def Con from 0.0554777 ++to 0.0554777
Heightened Def Con from 0.0554777 to 0.0554777
Heightened Def Con from 0.0554918 to 0.0554918
Heightened Def Con from 0.0554918 to 0.0554918
Heightened Def Con from 0.0554918 to 0.0554918
Heightened Def Con from 0.0554918 to 0.0554918
Heightened Def Con from 0.0554918 to 0.0554918
Heightened Def Con from 0.0554918 to 0.0554918
Heightened Def Con from 0.0554918 +to 0.0554918
Heightened Def Con from 0.0554918 to 0.0554918
Heightened Def Con from 0.0554918 to 0.0554918
Heightened Def Con from 0.0554918 +to 0.0554918
Heightened Def Con from 0.0554918 +to 0.0554918
Heightened Def Con from 0.0554918 to 0.0554918
Heightened Def Con from 0.0554918 +to 0.0554918
Heightened Def Con from 0.0554918 to 0.0554918
Heightened Def Con from 0.0554918 to 0.0554918
Heightened Def Con from 0.0554918 to 0.0554918
Heightened Def Con from 0.0554918 to 0.0554918
Heightened Def Con from 0.0554918 to 0.0554918
Heightened Def Con from 0.0554918 to 0.0554918
Heightened Def Con from 0.0554918 to 0.0554918
Heightened Def Con from 0.0554918 to 0.0554918
Heightened Def Con from 0.055498 to 0.055498
Heightened Def Con from 0.055498 +to 0.055498
Heightened Def Con from 0.055498 to 0.055498
Heightened Def Con from 0.055498 to 0.055498
Heightened Def Con from 0.055498 to 0.055498
Heightened Def Con from 0.055498 to 0.055498
Heightened Def Con from 0.055498 to 0.055498
Heightened Def Con from 0.055498 ++++to 0.055498
Heightened Def Con from 0.055498 to 0.055498
Heightened Def Con from 0.055498 +to 0.055498
Heightened Def Con from 0.055498 to 0.055498
Heightened Def Con from 0.055498 +to 0.055498
Heightened Def Con from 0.055498 ++to 0.055498
Heightened Def Con from 0.055498 to 0.055498
Heightened Def Con from 0.055498 to 0.055498
Heightened Def Con from 0.055498 to 0.055498
Heightened Def Con from 0.055498 to 0.055498
Heightened Def Con from 0.055498 to 0.055498
Heightened Def Con from 0.055498 +to 0.0554981
Heightened Def Con from 0.0554991 to 0.0554991
Heightened Def Con from 0.0554991 +to 0.0554991
Heightened Def Con from 0.0554991 to 0.0554991
Heightened Def Con from 0.0554991 to 0.0554991
Heightened Def Con from 0.0554991 to 0.0554991
Heightened Def Con from 0.0554991 to 0.0554991
Heightened Def Con from 0.0554991 +to 0.0554991
Heightened Def Con from 0.0554991 to 0.0554991
Heightened Def Con from 0.0554991 +to 0.0554991
Heightened Def Con from 0.0554991 +to 0.0554991
Heightened Def Con from 0.0554991 to 0.0554991
Heightened Def Con from 0.0554996 to 0.0554996
Heightened Def Con from 0.0554996 to 0.0554996
Heightened Def Con from 0.0554996 +++to 0.0554996
Heightened Def Con from 0.0554996 to 0.0554996
Heightened Def Con from 0.0554996 to 0.0554996
Heightened Def Con from 0.0554996 to 0.0554996
Heightened Def Con from 0.0554996 to 0.0554996
Heightened Def Con from 0.0554996 ++to 0.0554996
Heightened Def Con from 0.0554996 +to 0.0554996
Heightened Def Con from 0.0554996 to 0.0554996
Heightened Def Con from 0.0554996 to 0.0554996
Heightened Def Con from 0.0554999 +to 0.0554999
Heightened Def Con from 0.0555 to 0.0555
Heightened Def Con from 0.0555 to 0.0555
Heightened Def Con from 0.0555 to 0.0555
Heightened Def Con from 0.0555 to 0.0555
Heightened Def Con from 0.0555 to 0.0555
Heightened Def Con from 0.0555 +to 0.0555
Heightened Def Con from 0.0555 to 0.0555
Heightened Def Con from 0.0555 to 0.0555
Heightened Def Con from 0.0555 to 0.0555
Heightened Def Con from 0.0555 to 0.0555
Heightened Def Con from 0.0555 +to 0.0555
Heightened Def Con from 0.0555 to 0.0555
Heightened Def Con from 0.0555 to 0.0555
Heightened Def Con from 0.0555 to 0.0555
Heightened Def Con from 0.0555 +to 0.0555
Heightened Def Con from 0.0555 to 0.0555
Heightened Def Con from 0.0555 to 0.0555
Heightened Def Con from 0.0555 to 0.0555
Heightened Def Con from 0.0555 to 0.0555
Heightened Def Con from 0.0559975 to 0.0559975
Heightened Def Con from 0.0559975 to 0.0559975
Heightened Def Con from 0.0559995 to 0.0559995
Heightened Def Con from 0.0559998 to 0.0559998
Heightened Def Con from 0.056 to 0.056
Heightened Def Con from 0.056 to 0.056
Heightened Def Con from 0.056 to 0.056
Heightened Def Con from 0.056 to 0.056
Heightened Def Con from 0.0564657 to 0.0564657
Heightened Def Con from 0.0564927 to 0.0564927
Heightened Def Con from 0.0564927 ++to 0.0564927
Heightened Def Con from 0.0564927 to 0.0564927
Heightened Def Con from 0.0564927 ++to 0.0564927
Heightened Def Con from 0.0564927 to 0.0564927
Heightened Def Con from 0.0564927 ++to 0.0564927
Heightened Def Con from 0.0564968 to 0.0564968
Heightened Def Con from 0.0564968 to 0.0564968
Heightened Def Con from 0.0564989 to 0.0564989
Heightened Def Con from 0.0564997 to 0.0564997
Heightened Def Con from 0.0564997 to 0.0564997
Heightened Def Con from 0.0564997 to 0.0564997
Heightened Def Con from 0.0564997 to 0.0564997
Heightened Def Con from 0.0564997 to 0.0564997
Heightened Def Con from 0.0564997 to 0.0564997
Heightened Def Con from 0.0564997 to 0.0564997
Heightened Def Con from 0.0564997 to 0.0564997
Heightened Def Con from 0.0564999 to 0.0564999
Heightened Def Con from 0.0564999 to 0.0564999
Heightened Def Con from 0.0564999 to 0.0564999
Heightened Def Con from 0.0564999 to 0.0564999
Heightened Def Con from 0.0564999 ++++to 0.0564999
Heightened Def Con from 0.0564999 +to 0.0564999
Heightened Def Con from 0.0564999 +to 0.0564999
Heightened Def Con from 0.0564999 +to 0.0564999
Heightened Def Con from 0.0564999 to 0.0565
Heightened Def Con from 0.0565 to 0.0565
Heightened Def Con from 0.0565 to 0.0565
Heightened Def Con from 0.0565 to 0.0565
Heightened Def Con from 0.0565 to 0.0565
Heightened Def Con from 0.0565 to 0.0565
Heightened Def Con from 0.0565 to 0.0565
Heightened Def Con from 0.0565 to 0.0565
Heightened Def Con from 0.0565 ++to 0.0565
Heightened Def Con from 0.0565 +to 0.0565
Heightened Def Con from 0.0565 to 0.0565
Heightened Def Con from 0.0565 +to 0.0565
Heightened Def Con from 0.0565 +to 0.0565
Heightened Def Con from 0.0565 +to 0.0565
Heightened Def Con from 0.0565 to 0.0565
Heightened Def Con from 0.0565 to 0.0565
Heightened Def Con from 0.0565 to 0.0565
Heightened Def Con from 0.0565 +to 0.0565
Heightened Def Con from 0.0565 to 0.0565
Heightened Def Con from 0.0569742 to 0.0569742
Heightened Def Con from 0.0569742 to 0.0569742
Heightened Def Con from 0.0569742 to 0.0569742
Heightened Def Con from 0.0569742 to 0.0569742
Heightened Def Con from 0.0569742 +to 0.0569742
Heightened Def Con from 0.0569976 to 0.0569976
Heightened Def Con from 0.0569976 to 0.0569976
Heightened Def Con from 0.0569999 to 0.0569999
Heightened Def Con from 0.0574414 to 0.0574414
Heightened Def Con from 0.0574414 to 0.0574414
Heightened Def Con from 0.0574414 to 0.0574414
Heightened Def Con from 0.0574414 to 0.0574414
Heightened Def Con from 0.0574742 to 0.0574742
Heightened Def Con from 0.0574906 to 0.0574906
Heightened Def Con from 0.0574906 to 0.0574906
Heightened Def Con from 0.0574906 to 0.0574906
Heightened Def Con from 0.0574906 to 0.0574906
Heightened Def Con from 0.0574906 to 0.0574906
Heightened Def Con from 0.0574906 to 0.0574906
Heightened Def Con from 0.0574906 to 0.0574906
Heightened Def Con from 0.0574906 +to 0.0574906
Heightened Def Con from 0.0574906 to 0.0574906
Heightened Def Con from 0.0574906 +to 0.0574906
Heightened Def Con from 0.0574906 ++to 0.0574906
Heightened Def Con from 0.0574906 to 0.0574906
Heightened Def Con from 0.0574906 to 0.0574906
Heightened Def Con from 0.0574906 to 0.0574906
Heightened Def Con from 0.0574906 to 0.0574906
Heightened Def Con from 0.0574906 to 0.0574906
Heightened Def Con from 0.0574906 to 0.0574906
Heightened Def Con from 0.0574906 to 0.0574906
Heightened Def Con from 0.0574906 to 0.0574906
Heightened Def Con from 0.0574906 +to 0.0574906
Heightened Def Con from 0.0574976 to 0.0574976
Heightened Def Con from 0.0574976 +++to 0.0574976
Heightened Def Con from 0.0574976 to 0.0574976
Heightened Def Con from 0.0574976 to 0.0574976
Heightened Def Con from 0.0574976 +to 0.0574976
Heightened Def Con from 0.0574998 to 0.0574998
Heightened Def Con from 0.0574998 to 0.0574998
Heightened Def Con from 0.0574998 to 0.0574998
Heightened Def Con from 0.0574998 +to 0.0574998
Heightened Def Con from 0.0575 to 0.0575
Heightened Def Con from 0.0575 +to 0.0575
Heightened Def Con from 0.0579693 to 0.0579693
Heightened Def Con from 0.0579856 to 0.0579856
Heightened Def Con from 0.0579856 to 0.0579856
Heightened Def Con from 0.0579856 to 0.0579856
Heightened Def Con from 0.0579856 to 0.0579856
Heightened Def Con from 0.0579856 to 0.0579857
Heightened Def Con from 0.0579938 to 0.0579938
Heightened Def Con from 0.0579938 to 0.0579938
Heightened Def Con from 0.0579938 to 0.0579938
Heightened Def Con from 0.057998 to 0.057998
Heightened Def Con from 0.057998 to 0.057998
Heightened Def Con from 0.057999 to 0.057999
Heightened Def Con from 0.057999 to 0.057999
Heightened Def Con from 0.058 to 0.058
Heightened Def Con from 0.058 to 0.058
Heightened Def Con from 0.058 to 0.058
Heightened Def Con from 0.058 to 0.058
Heightened Def Con from 0.058 to 0.058
Heightened Def Con from 0.058 to 0.058
Heightened Def Con from 0.0584414 to 0.0584414
Heightened Def Con from 0.0584414 to 0.0584414
Heightened Def Con from 0.0584414 to 0.0584414
Heightened Def Con from 0.0584414 +to 0.0584414
Heightened Def Con from 0.0584742 ++to 0.0584742
Heightened Def Con from 0.0584742 +to 0.0584742
Heightened Def Con from 0.0584906 to 0.0584906
Heightened Def Con from 0.0584906 to 0.0584906
Heightened Def Con from 0.0584906 to 0.0584906
Heightened Def Con from 0.0584906 to 0.0584906
Heightened Def Con from 0.0584906 to 0.0584906
Heightened Def Con from 0.0584906 to 0.0584906
Heightened Def Con from 0.0584906 to 0.0584906
Heightened Def Con from 0.0584906 to 0.0584906
Heightened Def Con from 0.0584906 to 0.0584906
Heightened Def Con from 0.0584906 to 0.0584906
Heightened Def Con from 0.0584906 to 0.0584906
Heightened Def Con from 0.0584906 to 0.0584906
Heightened Def Con from 0.0584976 +to 0.0584976
Heightened Def Con from 0.0584976 to 0.0584976
Heightened Def Con from 0.0584976 to 0.0584976
Heightened Def Con from 0.0584976 +to 0.0584976
Heightened Def Con from 0.0584976 to 0.0584976
Heightened Def Con from 0.0584976 +to 0.0584976
Heightened Def Con from 0.0584976 to 0.0584976
Heightened Def Con from 0.0584976 to 0.0584976
Heightened Def Con from 0.0584976 to 0.0584976
Heightened Def Con from 0.0584976 to 0.0584976
Heightened Def Con from 0.0584976 to 0.0584976
Heightened Def Con from 0.0584976 +to 0.0584976
Heightened Def Con from 0.0584976 +to 0.0584976
Heightened Def Con from 0.0584997 to 0.0584997
Heightened Def Con from 0.0584997 to 0.0584997
Heightened Def Con from 0.0584997 to 0.0584997
Heightened Def Con from 0.0584999 to 0.0584999
Heightened Def Con from 0.0584999 to 0.0584999
Heightened Def Con from 0.0585 to 0.0585
Heightened Def Con from 0.0585 +to 0.0585
Heightened Def Con from 0.0585 +to 0.0585
Heightened Def Con from 0.0585 to 0.0585
Heightened Def Con from 0.0589414 to 0.0589414
Heightened Def Con from 0.0589414 to 0.0589414
Heightened Def Con from 0.0589414 to 0.0589414
Heightened Def Con from 0.0589414 to 0.0589414
Heightened Def Con from 0.0589414 to 0.0589414
Heightened Def Con from 0.0589742 to 0.0589742
Heightened Def Con from 0.0589976 to 0.0589976
Heightened Def Con from 0.0589976 to 0.0589976
Heightened Def Con from 0.0589976 to 0.0589976
Heightened Def Con from 0.0589976 to 0.0589976
Heightened Def Con from 0.0589999 to 0.0589999
Heightened Def Con from 0.059 to 0.059
Heightened Def Con from 0.059 to 0.059
Heightened Def Con from 0.0594931 to 0.0594931
Heightened Def Con from 0.0594931 to 0.0594931
Heightened Def Con from 0.0594931 to 0.0594931
Heightened Def Con from 0.0594931 +to 0.0594931
Heightened Def Con from 0.059499 to 0.059499
Heightened Def Con from 0.059499 to 0.059499
Heightened Def Con from 0.059499 +to 0.059499
Heightened Def Con from 0.0594995 ++to 0.0594995
Heightened Def Con from 0.0594999 +to 0.0594999
Heightened Def Con from 0.0594999 to 0.0594999
Heightened Def Con from 0.0594999 to 0.0594999
Heightened Def Con from 0.0594999 +to 0.0594999
Heightened Def Con from 0.0594999 to 0.0594999
Heightened Def Con from 0.0594999 +to 0.0594999
Heightened Def Con from 0.0594999 ++to 0.0594999
Heightened Def Con from 0.0594999 to 0.0594999
Heightened Def Con from 0.0594999 to 0.0594999
Heightened Def Con from 0.0594999 to 0.0594999
Heightened Def Con from 0.0594999 to 0.0594999
Heightened Def Con from 0.0594999 to 0.0594999
Heightened Def Con from 0.0595 to 0.0595
Heightened Def Con from 0.0595 to 0.0595
Heightened Def Con from 0.0595 to 0.0595
Heightened Def Con from 0.0595 to 0.0595
Heightened Def Con from 0.0595 to 0.0595
Heightened Def Con from 0.0595 to 0.0595
Heightened Def Con from 0.0595 to 0.0595
Heightened Def Con from 0.0599414 +to 0.0599414
Heightened Def Con from 0.0599414 to 0.0599414
Heightened Def Con from 0.0599414 to 0.0599414
Heightened Def Con from 0.0599414 to 0.0599414
Heightened Def Con from 0.0599414 to 0.0599414
Heightened Def Con from 0.0599414 to 0.0599414
Heightened Def Con from 0.0599742 to 0.0599742
Heightened Def Con from 0.0599742 to 0.0599742
Heightened Def Con from 0.0599906 to 0.0599906
Heightened Def Con from 0.0599906 to 0.0599906
Heightened Def Con from 0.0599999 to 0.0599999
Heightened Def Con from 0.0599999 to 0.0599999
Heightened Def Con from 0.0599999 to 0.0599999
Heightened Def Con from 0.0599999 to 0.0599999
Heightened Def Con from 0.06 to 0.06
Heightened Def Con from 0.06 to 0.06
Heightened Def Con from 0.06 to 0.06
Heightened Def Con from 0.06 to 0.06
Heightened Def Con from 0.06 to 0.06
Heightened Def Con from 0.06 to 0.06
Heightened Def Con from 0.06 to 0.06
Heightened Def Con from 0.06 to 0.06

Date: Fri Apr 12 15:32:42 2024
Total elapsed time: 2.881 seconds.

tnom = 27
temp = 27
method = modified trap
totiter = 915926
traniter = 915921
tranpoints = 136319
accept = 76173
rejected = 64703
matrix size = 26
fillins = 10
solver = Normal
Avg thread counts: 1.0/1.0/1.0/1.0
Matrix Compiler1: 2.04 KB object code size  0.5/0.3/[0.2]
Matrix Compiler2: 2.28 KB object code size  0.2/0.3/[0.2]

