Circuit: * D:\B Tech\Third Year\3_2\PE\Class_Participation\Class Assignment3\Inverter\HALF_BRIDGE.asc

Warning: Multiple definitions of model "2scr375p" Type: BJT
Warning: Multiple definitions of model "bc857b" Type: BJT
Warning: Multiple definitions of model "bc847c" Type: BJT
Warning: Multiple definitions of model "bc847b" Type: BJT
Direct Newton iteration for .op point succeeded.

Date: Fri Apr 12 15:32:22 2024
Total elapsed time: 0.185 seconds.

tnom = 27
temp = 27
method = modified trap
totiter = 46367
traniter = 46363
tranpoints = 19365
accept = 16796
rejected = 2569
matrix size = 9
fillins = 0
solver = Normal
Avg thread counts: 1.0/1.1/1.1/1.0
Matrix Compiler1: 332 bytes object code size  0.1/0.1/[0.1]
Matrix Compiler2: 667 bytes object code size  0.2/0.1/[0.1]

