Circuit: * D:\B Tech\Third Year\3_2\PE\Class_Participation\Class Assignment3\SCR\Phase1\FWR\FULL_SINGLE_RL.asc

.OP point found by inspection.

Date: Fri Apr 12 15:22:17 2024
Total elapsed time: 0.149 seconds.

tnom = 27
temp = 27
method = modified trap
totiter = 10960
traniter = 10960
tranpoints = 4672
accept = 3949
rejected = 723
matrix size = 113
fillins = 79
solver = Normal
Avg thread counts: 1.1/1.3/1.3/1.1
Matrix Compiler1: 7.62 KB object code size  1.4/1.1/[0.7]
Matrix Compiler2: 8.67 KB object code size  0.6/1.2/[0.4]

