Circuit: * D:\B Tech\Third Year\3_2\PE\Class_Participation\Class Assignment3\SCR\Phase1\HWR\HWR-R.asc

.OP point found by inspection.

Date: Fri Apr 12 14:53:59 2024
Total elapsed time: 0.230 seconds.

tnom = 27
temp = 27
method = modified trap
totiter = 6047
traniter = 6047
tranpoints = 2587
accept = 2301
rejected = 286
matrix size = 30
fillins = 15
solver = Normal
Avg thread counts: 2.1/1.5/1.5/1.2
Matrix Compiler1: 1.67 KB object code size  0.5/0.4/[0.3]
Matrix Compiler2: 2.21 KB object code size  0.2/0.4/[0.2]

