Circuit: * D:\B Tech\Third Year\3_2\PE\Class_Participation\Class Assignment3\SCR\Phase1\HWR\HWR-RLE.asc

Direct Newton iteration for .op point succeeded.

Date: Fri Apr 12 14:55:18 2024
Total elapsed time: 0.178 seconds.

tnom = 27
temp = 27
method = modified trap
totiter = 6220
traniter = 6212
tranpoints = 2620
accept = 2337
rejected = 283
matrix size = 33
fillins = 17
solver = Normal
Avg thread counts: 1.2/1.5/1.5/1.2
Matrix Compiler1: 1.80 KB object code size  1.0/1.3/[0.7]
Matrix Compiler2: off  [0.6]/1.4/0.7

