Circuit: * D:\B Tech\Third Year\3_2\PE\Class_Participation\Class Assignment3\SCR\Phase1\HWR\HWR-RLE-FD.asc

Direct Newton iteration for .op point succeeded.

Date: Fri Apr 12 14:55:42 2024
Total elapsed time: 0.187 seconds.

tnom = 27
temp = 27
method = modified trap
totiter = 6569
traniter = 6561
tranpoints = 2736
accept = 2411
rejected = 325
matrix size = 33
fillins = 17
solver = Normal
Avg thread counts: 1.2/1.5/1.5/1.2
Matrix Compiler1: 1.80 KB object code size  0.7/0.4/[0.3]
Matrix Compiler2: off  [0.3]/0.5/0.3

