Circuit: * D:\B Tech\Third Year\3_2\PE\Class_Participation\Class Assignment3\SCR\Phase1\HWR\HWR-RL.asc

.OP point found by inspection.

Date: Tue Apr 16 12:43:46 2024
Total elapsed time: 0.190 seconds.

tnom = 27
temp = 27
method = modified trap
totiter = 6296
traniter = 6296
tranpoints = 2624
accept = 2355
rejected = 269
matrix size = 31
fillins = 16
solver = Normal
Avg thread counts: 1.2/1.5/1.5/1.2
Matrix Compiler1: 1.77 KB object code size  0.5/0.9/[0.2]
Matrix Compiler2: 2.28 KB object code size  0.2/0.4/[0.2]

